Circuit: * D:\Users\C1\Documents\C1_Repos\Technion_Project_A\LTSPICE\Simulations\Flyback VF.asc

WARNING: Less than two connections to node v_g_clamp.  This node is used by r2.
Instance "m:u1:_gd_template:_lo_stage1:_lo_pmos": Length shorter than recommended for a level 1 MOSFET.
Instance "m:u1:_gd_template:_lo_stage1:_lo_nmos": Length shorter than recommended for a level 1 MOSFET.
Instance "m:u1:_gd_template:_lo_stage2:_lo_pmos": Length shorter than recommended for a level 1 MOSFET.
Instance "m:u1:_gd_template:_lo_stage2:_lo_nmos": Length shorter than recommended for a level 1 MOSFET.
Direct Newton iteration for .op point succeeded.
Heightened Def Con from 8.84752e-08 to 8.85221e-08
Heightened Def Con from 8.86843e-08 to 8.87312e-08
Heightened Def Con from 8.90171e-08 to 8.9033e-08
Heightened Def Con from 8.90495e-08 to 8.90964e-08
Heightened Def Con from 8.91076e-08 to 8.91545e-08
Heightened Def Con from 8.93073e-08 to 8.93542e-08
Heightened Def Con from 8.94414e-08 to 9.00664e-08
Heightened Def Con from 5.17004e-07 to 5.201e-07
Heightened Def Con from 5.82295e-07 to 5.8231e-07
Heightened Def Con from 5.82313e-07 to 5.8236e-07
Heightened Def Con from 5.82579e-07 to 5.83204e-07
Heightened Def Con from 5.85458e-07 to 5.85646e-07
Heightened Def Con from 1.00892e-06 to 1.01e-06
Heightened Def Con from 1.01663e-06 to 1.0201e-06
Heightened Def Con from 1.03686e-06 to 1.03986e-06
Heightened Def Con from 1.06972e-06 to 1.07272e-06
Heightened Def Con from 1.08132e-06 to 1.08135e-06
Heightened Def Con from 1.08149e-06 to 1.08338e-06
Heightened Def Con from 1.08619e-06 to 1.08633e-06
Heightened Def Con from 1.08633e-06 to 1.08638e-06
Heightened Def Con from 1.08647e-06 to 1.08648e-06
Heightened Def Con from 1.08648e-06 to 1.08652e-06
Heightened Def Con from 1.08653e-06 to 1.08657e-06
Heightened Def Con from 1.08662e-06 to 1.08667e-06
Heightened Def Con from 1.08673e-06 to 1.08674e-06
Heightened Def Con from 1.0868e-06 to 1.08681e-06
Heightened Def Con from 1.08681e-06 to 1.08681e-06
Heightened Def Con from 1.08682e-06 to 1.08686e-06
Heightened Def Con from 1.08703e-06 to 1.08706e-06
Heightened Def Con from 1.08722e-06 to 1.08785e-06
Heightened Def Con from 1.5036e-06 to 1.5086e-06
Heightened Def Con from 1.51844e-06 to 1.5202e-06
Heightened Def Con from 1.5202e-06 to 1.5252e-06
Heightened Def Con from 1.55532e-06 to 1.55832e-06
Heightened Def Con from 1.57227e-06 to 1.57527e-06
Heightened Def Con from 1.58258e-06 to 1.58261e-06
Heightened Def Con from 1.58366e-06 to 1.58416e-06
Heightened Def Con from 1.58416e-06 to 1.58479e-06
Heightened Def Con from 1.58588e-06 to 1.58788e-06
Heightened Def Con from 1.58788e-06 to 1.5879e-06
Heightened Def Con from 1.58792e-06 to 1.58797e-06
Heightened Def Con from 1.5888e-06 to 1.58942e-06
Heightened Def Con from 2.01664e-06 to 2.0201e-06
Heightened Def Con from 2.07818e-06 to 2.07818e-06
Heightened Def Con from 2.07843e-06 to 2.07846e-06
Heightened Def Con from 2.07856e-06 to 2.07856e-06
Heightened Def Con from 2.07856e-06 to 2.07933e-06
Heightened Def Con from 2.07945e-06 to 2.08347e-06
Heightened Def Con from 2.08443e-06 to 2.08445e-06
Heightened Def Con from 2.08446e-06 to 2.0845e-06
Heightened Def Con from 2.08462e-06 to 2.08513e-06
Heightened Def Con from 2.08513e-06 to 2.08575e-06
Heightened Def Con from 2.5174e-06 to 2.5201e-06
Heightened Def Con from 2.52011e-06 to 2.52411e-06
Heightened Def Con from 2.53693e-06 to 2.53993e-06
Heightened Def Con from 2.57014e-06 to 2.57314e-06
Heightened Def Con from 2.57964e-06 to 2.57967e-06
Heightened Def Con from 2.58044e-06 to 2.58044e-06
Heightened Def Con from 2.58044e-06 to 2.58049e-06
Heightened Def Con from 2.58089e-06 to 2.58128e-06
Heightened Def Con from 2.58209e-06 to 2.5861e-06
Heightened Def Con from 2.58683e-06 to 2.58746e-06
Heightened Def Con from 3.01887e-06 to 3.02e-06
Heightened Def Con from 3.0802e-06 to 3.08039e-06
Heightened Def Con from 3.08119e-06 to 3.08519e-06
Heightened Def Con from 3.0854e-06 to 3.08603e-06
Heightened Def Con from 3.08613e-06 to 3.08616e-06
Heightened Def Con from 3.08616e-06 to 3.09016e-06
Heightened Def Con from 3.50268e-06 to 3.50668e-06
Heightened Def Con from 3.51799e-06 to 3.52e-06
Heightened Def Con from 3.52071e-06 to 3.52371e-06
Heightened Def Con from 3.53595e-06 to 3.53895e-06
Heightened Def Con from 3.55225e-06 to 3.55525e-06
Heightened Def Con from 3.56881e-06 to 3.57181e-06
Heightened Def Con from 3.58026e-06 to 3.58026e-06
Heightened Def Con from 3.5803e-06 to 3.5803e-06
Heightened Def Con from 3.5803e-06 to 3.58033e-06
Heightened Def Con from 3.58036e-06 to 3.58036e-06
Heightened Def Con from 3.58037e-06 to 3.58039e-06
Heightened Def Con from 3.5804e-06 to 3.58045e-06
Heightened Def Con from 3.5806e-06 to 3.58062e-06
Heightened Def Con from 3.58062e-06 to 3.58065e-06
Heightened Def Con from 3.58085e-06 to 3.58087e-06
Heightened Def Con from 3.58089e-06 to 3.58092e-06
Heightened Def Con from 3.58092e-06 to 3.58094e-06
Heightened Def Con from 3.58103e-06 to 3.58104e-06
Heightened Def Con from 3.58104e-06 to 3.58104e-06
Heightened Def Con from 3.58104e-06 to 3.58105e-06
Heightened Def Con from 3.58105e-06 to 3.58109e-06
Heightened Def Con from 3.58123e-06 to 3.58123e-06
Heightened Def Con from 3.58142e-06 to 3.58143e-06
Heightened Def Con from 3.58143e-06 to 3.58545e-06
Heightened Def Con from 3.58547e-06 to 3.58549e-06
Heightened Def Con from 3.58561e-06 to 3.58623e-06
Heightened Def Con from 3.58628e-06 to 3.59128e-06
Heightened Def Con from 4.0049e-06 to 4.0089e-06
Heightened Def Con from 4.01654e-06 to 4.0201e-06
Heightened Def Con from 4.02011e-06 to 4.02411e-06
Heightened Def Con from 4.0378e-06 to 4.0408e-06
Heightened Def Con from 4.05453e-06 to 4.05753e-06
Heightened Def Con from 4.0706e-06 to 4.0736e-06
Heightened Def Con from 4.07935e-06 to 4.08235e-06
Heightened Def Con from 4.08236e-06 to 4.08239e-06
Heightened Def Con from 4.08242e-06 to 4.08242e-06
Heightened Def Con from 4.08242e-06 to 4.08245e-06
Heightened Def Con from 4.08245e-06 to 4.08245e-06
Heightened Def Con from 4.08265e-06 to 4.08265e-06
Heightened Def Con from 4.08265e-06 to 4.0829e-06
Heightened Def Con from 4.08291e-06 to 4.08692e-06
Heightened Def Con from 4.08696e-06 to 4.0871e-06
Heightened Def Con from 4.0871e-06 to 4.08713e-06
Heightened Def Con from 4.08746e-06 to 4.0875e-06
Heightened Def Con from 4.08751e-06 to 4.08753e-06
Heightened Def Con from 4.08753e-06 to 4.08753e-06
Heightened Def Con from 4.08753e-06 to 4.08755e-06
Heightened Def Con from 4.08756e-06 to 4.08758e-06
Heightened Def Con from 4.08758e-06 to 4.08758e-06
Heightened Def Con from 4.08758e-06 to 4.08758e-06
Heightened Def Con from 4.08758e-06 to 4.08763e-06
Heightened Def Con from 4.08767e-06 to 4.08767e-06
Heightened Def Con from 4.08767e-06 to 4.08767e-06
Heightened Def Con from 4.08767e-06 to 4.08767e-06
Heightened Def Con from 4.08767e-06 to 4.0878e-06
Heightened Def Con from 4.08781e-06 to 4.08783e-06
Heightened Def Con from 4.08783e-06 to 4.0882e-06
Heightened Def Con from 4.0882e-06 to 4.0882e-06
Heightened Def Con from 4.0882e-06 to 4.08859e-06
Heightened Def Con from 4.08859e-06 to 4.09259e-06
Heightened Def Con from 4.50336e-06 to 4.50737e-06
Heightened Def Con from 4.50738e-06 to 4.50945e-06
Heightened Def Con from 4.50965e-06 to 4.51001e-06
Heightened Def Con from 4.51014e-06 to 4.51214e-06
Heightened Def Con from 4.51217e-06 to 4.51329e-06
Heightened Def Con from 4.5189e-06 to 4.52203e-06
Heightened Def Con from 4.52212e-06 to 4.52412e-06
Heightened Def Con from 4.53006e-06 to 4.53006e-06
Heightened Def Con from 4.53029e-06 to 4.53242e-06
Heightened Def Con from 4.53245e-06 to 4.53545e-06
Heightened Def Con from 4.53972e-06 to 4.54272e-06
Heightened Def Con from 4.54581e-06 to 4.54681e-06
Heightened Def Con from 4.54681e-06 to 4.54981e-06
Heightened Def Con from 4.56189e-06 to 4.56302e-06
Heightened Def Con from 4.5652e-06 to 4.56622e-06
Heightened Def Con from 4.56628e-06 to 4.5673e-06
Heightened Def Con from 4.56762e-06 to 4.56862e-06
Heightened Def Con from 4.56862e-06 to 4.57162e-06
Heightened Def Con from 4.57291e-06 to 4.57591e-06
Heightened Def Con from 4.58343e-06 to 4.58346e-06
Heightened Def Con from 4.58348e-06 to 4.58352e-06
Heightened Def Con from 4.58352e-06 to 4.58353e-06
Heightened Def Con from 4.58355e-06 to 4.58356e-06
Heightened Def Con from 4.58356e-06 to 4.58356e-06
Heightened Def Con from 4.58356e-06 to 4.58359e-06
Heightened Def Con from 4.58367e-06 to 4.58369e-06
Heightened Def Con from 4.58369e-06 to 4.5837e-06
Heightened Def Con from 4.5837e-06 to 4.58371e-06
Heightened Def Con from 4.58382e-06 to 4.58382e-06
Heightened Def Con from 4.58383e-06 to 4.58383e-06
Heightened Def Con from 4.58386e-06 to 4.58387e-06
Heightened Def Con from 4.58394e-06 to 4.58396e-06
Heightened Def Con from 4.58396e-06 to 4.58396e-06
Heightened Def Con from 4.58396e-06 to 4.58396e-06
Heightened Def Con from 4.58397e-06 to 4.58397e-06
Heightened Def Con from 4.58397e-06 to 4.58397e-06
Heightened Def Con from 4.58398e-06 to 4.58399e-06
Heightened Def Con from 4.58405e-06 to 4.5841e-06
Heightened Def Con from 4.58443e-06 to 4.58446e-06
Heightened Def Con from 4.58447e-06 to 4.58947e-06
Heightened Def Con from 4.58949e-06 to 4.58949e-06
Heightened Def Con from 4.58955e-06 to 4.58955e-06
Heightened Def Con from 4.58956e-06 to 4.58956e-06
Heightened Def Con from 4.58956e-06 to 4.58956e-06
Heightened Def Con from 4.58956e-06 to 4.58956e-06
Heightened Def Con from 4.58959e-06 to 4.5896e-06
Heightened Def Con from 4.58961e-06 to 4.58966e-06
Heightened Def Con from 4.58969e-06 to 4.58969e-06
Heightened Def Con from 4.58971e-06 to 4.58972e-06
Heightened Def Con from 4.58972e-06 to 4.5899e-06
Heightened Def Con from 4.59047e-06 to 4.59447e-06
Heightened Def Con from 5.00393e-06 to 5.00693e-06
Heightened Def Con from 5.00707e-06 to 5.01007e-06
Heightened Def Con from 5.01065e-06 to 5.01365e-06
Heightened Def Con from 5.016e-06 to 5.01601e-06
Heightened Def Con from 5.01601e-06 to 5.01813e-06
Heightened Def Con from 5.01814e-06 to 5.02115e-06
Heightened Def Con from 5.02116e-06 to 5.02416e-06
Heightened Def Con from 5.03409e-06 to 5.03611e-06
Heightened Def Con from 5.03618e-06 to 5.03918e-06
Heightened Def Con from 5.05103e-06 to 5.05403e-06
Heightened Def Con from 5.05775e-06 to 5.06075e-06
Heightened Def Con from 5.06757e-06 to 5.06857e-06
Heightened Def Con from 5.06857e-06 to 5.07157e-06
Heightened Def Con from 5.0776e-06 to 5.0796e-06
Heightened Def Con from 5.07961e-06 to 5.07961e-06
Heightened Def Con from 5.07961e-06 to 5.07963e-06
Heightened Def Con from 5.07963e-06 to 5.07963e-06
Heightened Def Con from 5.07963e-06 to 5.07963e-06
Heightened Def Con from 5.07963e-06 to 5.07965e-06
Heightened Def Con from 5.07965e-06 to 5.07965e-06
Heightened Def Con from 5.07965e-06 to 5.07965e-06
Heightened Def Con from 5.07965e-06 to 5.07965e-06
Heightened Def Con from 5.07965e-06 to 5.07966e-06
Heightened Def Con from 5.07966e-06 to 5.07968e-06
Heightened Def Con from 5.07971e-06 to 5.07971e-06
Heightened Def Con from 5.07971e-06 to 5.07971e-06
Heightened Def Con from 5.07971e-06 to 5.07974e-06
Heightened Def Con from 5.07978e-06 to 5.07979e-06
Heightened Def Con from 5.07979e-06 to 5.0798e-06
Heightened Def Con from 5.0798e-06 to 5.07983e-06
Heightened Def Con from 5.07987e-06 to 5.07991e-06
Heightened Def Con from 5.07992e-06 to 5.07992e-06
Heightened Def Con from 5.07992e-06 to 5.07994e-06
Heightened Def Con from 5.07994e-06 to 5.07997e-06
Heightened Def Con from 5.08001e-06 to 5.08001e-06
Heightened Def Con from 5.08001e-06 to 5.08003e-06
Heightened Def Con from 5.08003e-06 to 5.08004e-06
Heightened Def Con from 5.08004e-06 to 5.08005e-06
Heightened Def Con from 5.08005e-06 to 5.08005e-06
Heightened Def Con from 5.08005e-06 to 5.08005e-06
Heightened Def Con from 5.08005e-06 to 5.08006e-06
Heightened Def Con from 5.08007e-06 to 5.08008e-06
Heightened Def Con from 5.08008e-06 to 5.0801e-06
Heightened Def Con from 5.0801e-06 to 5.08012e-06
Heightened Def Con from 5.08019e-06 to 5.08019e-06
Heightened Def Con from 5.08019e-06 to 5.08021e-06
Heightened Def Con from 5.08021e-06 to 5.08021e-06
Heightened Def Con from 5.08022e-06 to 5.08022e-06
Heightened Def Con from 5.08022e-06 to 5.08025e-06
Heightened Def Con from 5.08028e-06 to 5.08053e-06
Heightened Def Con from 5.08053e-06 to 5.08354e-06
Heightened Def Con from 5.08354e-06 to 5.08356e-06
Heightened Def Con from 5.0836e-06 to 5.08386e-06
Heightened Def Con from 5.08387e-06 to 5.08424e-06
Heightened Def Con from 5.08435e-06 to 5.08438e-06
Heightened Def Con from 5.08438e-06 to 5.08439e-06
Heightened Def Con from 5.08439e-06 to 5.08439e-06
Heightened Def Con from 5.08439e-06 to 5.08441e-06
Heightened Def Con from 5.08441e-06 to 5.08441e-06
Heightened Def Con from 5.08441e-06 to 5.08468e-06
Heightened Def Con from 5.0847e-06 to 5.0847e-06
Heightened Def Con from 5.0847e-06 to 5.0847e-06
Heightened Def Con from 5.08471e-06 to 5.08473e-06
Heightened Def Con from 5.08473e-06 to 5.08478e-06
Heightened Def Con from 5.08478e-06 to 5.08478e-06
Heightened Def Con from 5.08478e-06 to 5.08482e-06
Heightened Def Con from 5.08492e-06 to 5.08495e-06
Heightened Def Con from 5.08496e-06 to 5.08499e-06
Heightened Def Con from 5.08499e-06 to 5.08504e-06
Heightened Def Con from 5.08507e-06 to 5.08507e-06
Heightened Def Con from 5.08507e-06 to 5.08507e-06
Heightened Def Con from 5.08507e-06 to 5.08509e-06
Heightened Def Con from 5.08509e-06 to 5.08511e-06
Heightened Def Con from 5.08511e-06 to 5.08511e-06
Heightened Def Con from 5.08511e-06 to 5.08512e-06
Heightened Def Con from 5.08515e-06 to 5.08517e-06
Heightened Def Con from 5.08517e-06 to 5.08517e-06
Heightened Def Con from 5.08517e-06 to 5.0852e-06
Heightened Def Con from 5.0852e-06 to 5.08521e-06
Heightened Def Con from 5.08521e-06 to 5.08522e-06
Heightened Def Con from 5.08523e-06 to 5.08524e-06
Heightened Def Con from 5.08524e-06 to 5.08524e-06
Heightened Def Con from 5.08524e-06 to 5.08524e-06
Heightened Def Con from 5.08524e-06 to 5.08528e-06
Heightened Def Con from 5.08529e-06 to 5.08541e-06
Heightened Def Con from 5.08541e-06 to 5.08941e-06
Heightened Def Con from 5.09062e-06 to 5.09362e-06
Heightened Def Con from 5.23412e-06 to 5.23625e-06
Heightened Def Con from 5.24092e-06 to 5.24106e-06
Heightened Def Con from 5.24107e-06 to 5.24144e-06
Heightened Def Con from 5.24153e-06 to 5.24453e-06
Heightened Def Con from 5.25185e-06 to 5.25297e-06
Heightened Def Con from 5.26331e-06 to 5.26344e-06
Heightened Def Con from 5.49488e-06 to 5.496e-06
Heightened Def Con from 5.49645e-06 to 5.49757e-06
Heightened Def Con from 5.50011e-06 to 5.50311e-06
Heightened Def Con from 5.50311e-06 to 5.50724e-06
Heightened Def Con from 5.50749e-06 to 5.50861e-06
Heightened Def Con from 5.50904e-06 to 5.51304e-06
Heightened Def Con from 5.51524e-06 to 5.51726e-06
Heightened Def Con from 5.51896e-06 to 5.52509e-06
Heightened Def Con from 5.55276e-06 to 5.55776e-06
Heightened Def Con from 5.57577e-06 to 5.57877e-06
Heightened Def Con from 5.58517e-06 to 5.58518e-06
Heightened Def Con from 5.58609e-06 to 5.58613e-06
Heightened Def Con from 5.58656e-06 to 5.58657e-06
Heightened Def Con from 5.58673e-06 to 5.58674e-06
Heightened Def Con from 5.58713e-06 to 5.58715e-06
Heightened Def Con from 5.58715e-06 to 5.58715e-06
Heightened Def Con from 5.58715e-06 to 5.58715e-06
Heightened Def Con from 5.58788e-06 to 5.58804e-06
Heightened Def Con from 5.58807e-06 to 5.58909e-06
Heightened Def Con from 5.58934e-06 to 5.59135e-06
Heightened Def Con from 5.59263e-06 to 5.59563e-06
Heightened Def Con from 5.99601e-06 to 5.99614e-06
Heightened Def Con from 5.99614e-06 to 5.99814e-06
Heightened Def Con from 6.00532e-06 to 6.00744e-06
Heightened Def Con from 6.00769e-06 to 6.00869e-06
Heightened Def Con from 6.00869e-06 to 6.00971e-06
Heightened Def Con from 6.00976e-06 to 6.01188e-06
Heightened Def Con from 6.0119e-06 to 6.0149e-06
Heightened Def Con from 6.01765e-06 to 6.01792e-06
Heightened Def Con from 6.01805e-06 to 6.01855e-06
Heightened Def Con from 6.01855e-06 to 6.01955e-06
Heightened Def Con from 6.01956e-06 to 6.01993e-06
Heightened Def Con from 6.01994e-06 to 6.02306e-06
Heightened Def Con from 6.02332e-06 to 6.02444e-06
Heightened Def Con from 6.03819e-06 to 6.04119e-06
Heightened Def Con from 6.05297e-06 to 6.05497e-06
Heightened Def Con from 6.05497e-06 to 6.05797e-06
Heightened Def Con from 6.06747e-06 to 6.07047e-06
Heightened Def Con from 6.07047e-06 to 6.0726e-06
Heightened Def Con from 6.07331e-06 to 6.07631e-06
Heightened Def Con from 6.07831e-06 to 6.07835e-06
Heightened Def Con from 6.07835e-06 to 6.07835e-06
Heightened Def Con from 6.07837e-06 to 6.07839e-06
Heightened Def Con from 6.07839e-06 to 6.07842e-06
Heightened Def Con from 6.07844e-06 to 6.07844e-06
Heightened Def Con from 6.07846e-06 to 6.07846e-06
Heightened Def Con from 6.07846e-06 to 6.07847e-06
Heightened Def Con from 6.07848e-06 to 6.07848e-06
Heightened Def Con from 6.07848e-06 to 6.07849e-06
Heightened Def Con from 6.07849e-06 to 6.07851e-06
Heightened Def Con from 6.07852e-06 to 6.07852e-06
Heightened Def Con from 6.07852e-06 to 6.07852e-06
Heightened Def Con from 6.07852e-06 to 6.07891e-06
Heightened Def Con from 6.07892e-06 to 6.08592e-06
Heightened Def Con from 6.08593e-06 to 6.08694e-06
Heightened Def Con from 6.08709e-06 to 6.08709e-06
Heightened Def Con from 6.08709e-06 to 6.08711e-06
Heightened Def Con from 6.08711e-06 to 6.08714e-06
Heightened Def Con from 6.08724e-06 to 6.08724e-06
Heightened Def Con from 6.08724e-06 to 6.08725e-06
Heightened Def Con from 6.08726e-06 to 6.08727e-06
Heightened Def Con from 6.0873e-06 to 6.08733e-06
Heightened Def Con from 6.0874e-06 to 6.08741e-06
Heightened Def Con from 6.08741e-06 to 6.08741e-06
Heightened Def Con from 6.08741e-06 to 6.08742e-06
Heightened Def Con from 6.08742e-06 to 6.08744e-06
Heightened Def Con from 6.08744e-06 to 6.08744e-06
Heightened Def Con from 6.08744e-06 to 6.08744e-06
Heightened Def Con from 6.08744e-06 to 6.08744e-06
Heightened Def Con from 6.08744e-06 to 6.08744e-06
Heightened Def Con from 6.08744e-06 to 6.08745e-06
Heightened Def Con from 6.08745e-06 to 6.08747e-06
Heightened Def Con from 6.08747e-06 to 6.08748e-06
Heightened Def Con from 6.08749e-06 to 6.08749e-06
Heightened Def Con from 6.08749e-06 to 6.08749e-06
Heightened Def Con from 6.08749e-06 to 6.0875e-06
Heightened Def Con from 6.0875e-06 to 6.08751e-06
Heightened Def Con from 6.08752e-06 to 6.08752e-06
Heightened Def Con from 6.08752e-06 to 6.08757e-06
Heightened Def Con from 6.08761e-06 to 6.08761e-06
Heightened Def Con from 6.08761e-06 to 6.08763e-06
Heightened Def Con from 6.08763e-06 to 6.08768e-06
Heightened Def Con from 6.08778e-06 to 6.08778e-06
Heightened Def Con from 6.08778e-06 to 6.08778e-06
Heightened Def Con from 6.0878e-06 to 6.0878e-06
Heightened Def Con from 6.0878e-06 to 6.0878e-06
Heightened Def Con from 6.08781e-06 to 6.08781e-06
Heightened Def Con from 6.08781e-06 to 6.08782e-06
Heightened Def Con from 6.08783e-06 to 6.08783e-06
Heightened Def Con from 6.08783e-06 to 6.08787e-06
Heightened Def Con from 6.08788e-06 to 6.08788e-06
Heightened Def Con from 6.08788e-06 to 6.08791e-06
Heightened Def Con from 6.08791e-06 to 6.08794e-06
Heightened Def Con from 6.08794e-06 to 6.08795e-06
Heightened Def Con from 6.08795e-06 to 6.08795e-06
Heightened Def Con from 6.08797e-06 to 6.08797e-06
Heightened Def Con from 6.08797e-06 to 6.08797e-06
Heightened Def Con from 6.08797e-06 to 6.08797e-06
Heightened Def Con from 6.08797e-06 to 6.08798e-06
Heightened Def Con from 6.08798e-06 to 6.08798e-06
Heightened Def Con from 6.08798e-06 to 6.08798e-06
Heightened Def Con from 6.08798e-06 to 6.088e-06
Heightened Def Con from 6.08803e-06 to 6.08803e-06
Heightened Def Con from 6.08803e-06 to 6.08805e-06
Heightened Def Con from 6.08805e-06 to 6.08807e-06
Heightened Def Con from 6.08808e-06 to 6.0881e-06
Heightened Def Con from 6.0881e-06 to 6.08812e-06
Heightened Def Con from 6.08812e-06 to 6.08812e-06
Heightened Def Con from 6.08812e-06 +to 6.08815e-06
Heightened Def Con from 6.08815e-06 to 6.08816e-06
Heightened Def Con from 6.08817e-06 to 6.08817e-06
Heightened Def Con from 6.08817e-06 to 6.08819e-06
Heightened Def Con from 6.08819e-06 to 6.08819e-06
Heightened Def Con from 6.08819e-06 to 6.08819e-06
Heightened Def Con from 6.0882e-06 to 6.0882e-06
Heightened Def Con from 6.0882e-06 to 6.0882e-06
Heightened Def Con from 6.0882e-06 to 6.08822e-06
Heightened Def Con from 6.08822e-06 to 6.08822e-06
Heightened Def Con from 6.08822e-06 to 6.08824e-06
Heightened Def Con from 6.08824e-06 to 6.08826e-06
Heightened Def Con from 6.08826e-06 to 6.08831e-06
Heightened Def Con from 6.0884e-06 to 6.08841e-06
Heightened Def Con from 6.08842e-06 to 6.08859e-06
Heightened Def Con from 6.08859e-06 to 6.09259e-06
Heightened Def Con from 6.18933e-06 to 6.18959e-06
Heightened Def Con from 6.18962e-06 to 6.19262e-06
Heightened Def Con from 6.21774e-06 to 6.22074e-06
Heightened Def Con from 6.22092e-06 to 6.22105e-06
Heightened Def Con from 6.22114e-06 to 6.22227e-06
Heightened Def Con from 6.22272e-06 to 6.22298e-06
Heightened Def Con from 6.23577e-06 to 6.2379e-06
Heightened Def Con from 6.23831e-06 to 6.24131e-06
Heightened Def Con from 6.25564e-06 to 6.25568e-06
Heightened Def Con from 6.48093e-06 to 6.48205e-06
Heightened Def Con from 6.48309e-06 to 6.48421e-06
Heightened Def Con from 6.48468e-06 to 6.48668e-06
Heightened Def Con from 6.50107e-06 to 6.50407e-06
Heightened Def Con from 6.50466e-06 to 6.50578e-06
Heightened Def Con from 6.50691e-06 to 6.50804e-06
Heightened Def Con from 6.5083e-06 to 6.5133e-06
Heightened Def Con from 6.51609e-06 to 6.51823e-06
Heightened Def Con from 6.51824e-06 to 6.52036e-06
Heightened Def Con from 6.52137e-06 to 6.52138e-06
Heightened Def Con from 6.52148e-06 to 6.5235e-06
Heightened Def Con from 6.52465e-06 to 6.52567e-06
Heightened Def Con from 6.52606e-06 to 6.52719e-06
Heightened Def Con from 6.52906e-06 to 6.53206e-06
Heightened Def Con from 6.53206e-06 to 6.53419e-06
Heightened Def Con from 6.53422e-06 to 6.53436e-06
Heightened Def Con from 6.53476e-06 to 6.53776e-06
Heightened Def Con from 6.54108e-06 to 6.54321e-06
Heightened Def Con from 6.54325e-06 to 6.54625e-06
Heightened Def Con from 6.55513e-06 to 6.55726e-06
Heightened Def Con from 6.55726e-06 to 6.55926e-06
Heightened Def Con from 6.55954e-06 to 6.56166e-06
Heightened Def Con from 6.57108e-06 to 6.5732e-06
Heightened Def Con from 6.5767e-06 to 6.57872e-06
Heightened Def Con from 6.57906e-06 to 6.57909e-06
Heightened Def Con from 6.5792e-06 to 6.57923e-06
Heightened Def Con from 6.57927e-06 to 6.57927e-06
Heightened Def Con from 6.5793e-06 to 6.57933e-06
Heightened Def Con from 6.57949e-06 +to 6.57949e-06
Heightened Def Con from 6.57949e-06 to 6.57951e-06
Heightened Def Con from 6.57951e-06 to 6.57954e-06
Heightened Def Con from 6.57956e-06 to 6.57961e-06
Heightened Def Con from 6.57972e-06 to 6.57972e-06
Heightened Def Con from 6.57972e-06 to 6.57974e-06
Heightened Def Con from 6.57974e-06 to 6.57979e-06
Heightened Def Con from 6.57979e-06 to 6.57981e-06
Heightened Def Con from 6.57981e-06 to 6.57986e-06
Heightened Def Con from 6.57986e-06 to 6.57986e-06
Heightened Def Con from 6.57992e-06 to 6.57992e-06
Heightened Def Con from 6.57993e-06 to 6.57993e-06
Heightened Def Con from 6.57993e-06 to 6.57997e-06
Heightened Def Con from 6.57997e-06 to 6.57999e-06
Heightened Def Con from 6.58051e-06 to 6.58066e-06
Heightened Def Con from 6.58067e-06 to 6.58379e-06
Heightened Def Con from 6.58423e-06 to 6.5845e-06
Heightened Def Con from 6.58454e-06 to 6.58667e-06
Heightened Def Con from 6.58684e-06 to 6.58722e-06
Heightened Def Con from 6.58794e-06 to 6.58794e-06
Heightened Def Con from 6.58794e-06 to 6.58794e-06
Heightened Def Con from 6.58801e-06 to 6.58814e-06
Heightened Def Con from 6.58815e-06 to 6.59215e-06
Heightened Def Con from 6.59373e-06 to 6.59398e-06
Heightened Def Con from 6.59399e-06 to 6.59511e-06
Heightened Def Con from 6.59688e-06 to 6.598e-06
Heightened Def Con from 6.59829e-06 to 6.59831e-06
Heightened Def Con from 6.59837e-06 to 6.60137e-06
Heightened Def Con from 6.94095e-06 to 6.94108e-06
Heightened Def Con from 6.94108e-06 to 6.94108e-06
Heightened Def Con from 6.94108e-06 to 6.94122e-06
Heightened Def Con from 6.94122e-06 to 6.94322e-06
Heightened Def Con from 7.00386e-06 to 7.00686e-06
Heightened Def Con from 7.00686e-06 to 7.01199e-06
Heightened Def Con from 7.01199e-06 to 7.01499e-06
Heightened Def Con from 7.01706e-06 to 7.02506e-06
Heightened Def Con from 7.03894e-06 to 7.04194e-06
Heightened Def Con from 7.05464e-06 to 7.05764e-06
Heightened Def Con from 7.05964e-06 to 7.06264e-06
Heightened Def Con from 7.07075e-06 to 7.07288e-06
Heightened Def Con from 7.08078e-06 to 7.0828e-06
Heightened Def Con from 7.08286e-06 to 7.08286e-06
Heightened Def Con from 7.08286e-06 to 7.08288e-06
Heightened Def Con from 7.08288e-06 to 7.08288e-06
Heightened Def Con from 7.08288e-06 to 7.0829e-06
Heightened Def Con from 7.0829e-06 to 7.08293e-06
Heightened Def Con from 7.08296e-06 to 7.08298e-06
Heightened Def Con from 7.08298e-06 to 7.08301e-06
Heightened Def Con from 7.08304e-06 to 7.08307e-06
Heightened Def Con from 7.08307e-06 to 7.08309e-06
Heightened Def Con from 7.08311e-06 to 7.08311e-06
Heightened Def Con from 7.08311e-06 to 7.08311e-06
Heightened Def Con from 7.08311e-06 to 7.08311e-06
Heightened Def Con from 7.08311e-06 to 7.08314e-06
Heightened Def Con from 7.08315e-06 to 7.08318e-06
Heightened Def Con from 7.08318e-06 to 7.08319e-06
Heightened Def Con from 7.08319e-06 to 7.08319e-06
Heightened Def Con from 7.08319e-06 to 7.08321e-06
Heightened Def Con from 7.08321e-06 to 7.08321e-06
Heightened Def Con from 7.08321e-06 to 7.08321e-06
Heightened Def Con from 7.08321e-06 to 7.08322e-06
Heightened Def Con from 7.08322e-06 to 7.08323e-06
Heightened Def Con from 7.08325e-06 to 7.08325e-06
Heightened Def Con from 7.08325e-06 to 7.08327e-06
Heightened Def Con from 7.08327e-06 to 7.08327e-06
Heightened Def Con from 7.08327e-06 to 7.0833e-06
Heightened Def Con from 7.08331e-06 to 7.08334e-06
Heightened Def Con from 7.08335e-06 to 7.08335e-06
Heightened Def Con from 7.08335e-06 to 7.08335e-06
Heightened Def Con from 7.08335e-06 to 7.08339e-06
Heightened Def Con from 7.0835e-06 to 7.08363e-06
Heightened Def Con from 7.08364e-06 to 7.08665e-06
Heightened Def Con from 7.08675e-06 to 7.08677e-06
Heightened Def Con from 7.08678e-06 to 7.08678e-06
Heightened Def Con from 7.08678e-06 to 7.08678e-06
Heightened Def Con from 7.08678e-06 to 7.08678e-06
Heightened Def Con from 7.08678e-06 to 7.0868e-06
Heightened Def Con from 7.0868e-06 to 7.08682e-06
Heightened Def Con from 7.08682e-06 to 7.08686e-06
Heightened Def Con from 7.0869e-06 to 7.0869e-06
Heightened Def Con from 7.08692e-06 to 7.08692e-06
Heightened Def Con from 7.08692e-06 to 7.08695e-06
Heightened Def Con from 7.08697e-06 to 7.08697e-06
Heightened Def Con from 7.08697e-06 to 7.08697e-06
Heightened Def Con from 7.08697e-06 to 7.08698e-06
Heightened Def Con from 7.08698e-06 to 7.08699e-06
Heightened Def Con from 7.08699e-06 to 7.08699e-06
Heightened Def Con from 7.08699e-06 to 7.08701e-06
Heightened Def Con from 7.08701e-06 to 7.08701e-06
Heightened Def Con from 7.08701e-06 to 7.08702e-06
Heightened Def Con from 7.08702e-06 to 7.08703e-06
Heightened Def Con from 7.08703e-06 to 7.08703e-06
Heightened Def Con from 7.08703e-06 to 7.08703e-06
Heightened Def Con from 7.08703e-06 to 7.08703e-06
Heightened Def Con from 7.08703e-06 to 7.08706e-06
Heightened Def Con from 7.08707e-06 to 7.08707e-06
Heightened Def Con from 7.08707e-06 to 7.0871e-06
Heightened Def Con from 7.0871e-06 to 7.0871e-06
Heightened Def Con from 7.08711e-06 to 7.08712e-06
Heightened Def Con from 7.08712e-06 to 7.08715e-06
Heightened Def Con from 7.0872e-06 to 7.08723e-06
Heightened Def Con from 7.08726e-06 to 7.08727e-06
Heightened Def Con from 7.08728e-06 to 7.08728e-06
Heightened Def Con from 7.08728e-06 to 7.08728e-06
Heightened Def Con from 7.08728e-06 to 7.08728e-06
Heightened Def Con from 7.08728e-06 to 7.08731e-06
Heightened Def Con from 7.08731e-06 to 7.08732e-06
Heightened Def Con from 7.08732e-06 to 7.08732e-06
Heightened Def Con from 7.08732e-06 to 7.08732e-06
Heightened Def Con from 7.08732e-06 to 7.08735e-06
Heightened Def Con from 7.08735e-06 to 7.08735e-06
Heightened Def Con from 7.08735e-06 to 7.08735e-06
Heightened Def Con from 7.08735e-06 to 7.08738e-06
Heightened Def Con from 7.08753e-06 to 7.08754e-06
Heightened Def Con from 7.08754e-06 to 7.08754e-06
Heightened Def Con from 7.08754e-06 to 7.08754e-06
Heightened Def Con from 7.08754e-06 to 7.08758e-06
Heightened Def Con from 7.08758e-06 to 7.0876e-06
Heightened Def Con from 7.08761e-06 to 7.08765e-06
Heightened Def Con from 7.0877e-06 to 7.08771e-06
Heightened Def Con from 7.08772e-06 to 7.08772e-06
Heightened Def Con from 7.08772e-06 to 7.08775e-06
Heightened Def Con from 7.08775e-06 to 7.08778e-06
Heightened Def Con from 7.08778e-06 to 7.08778e-06
Heightened Def Con from 7.08778e-06 to 7.0878e-06
Heightened Def Con from 7.0878e-06 to 7.08782e-06
Heightened Def Con from 7.08782e-06 to 7.08787e-06
Heightened Def Con from 7.08787e-06 to 7.08789e-06
Heightened Def Con from 7.08791e-06 to 7.08792e-06
Heightened Def Con from 7.08794e-06 to 7.08796e-06
Heightened Def Con from 7.08796e-06 to 7.08796e-06
Heightened Def Con from 7.08796e-06 to 7.08798e-06
Heightened Def Con from 7.08798e-06 to 7.08799e-06
Heightened Def Con from 7.08799e-06 to 7.08804e-06
Heightened Def Con from 7.08804e-06 to 7.08809e-06
Heightened Def Con from 7.08816e-06 to 7.08821e-06
Heightened Def Con from 7.08824e-06 to 7.08829e-06
Heightened Def Con from 7.08833e-06 to 7.08834e-06
Heightened Def Con from 7.08834e-06 to 7.08834e-06
Heightened Def Con from 7.08834e-06 to 7.08837e-06
Heightened Def Con from 7.08837e-06 to 7.08839e-06
Heightened Def Con from 7.08839e-06 to 7.08841e-06
Heightened Def Con from 7.08841e-06 to 7.08844e-06
Heightened Def Con from 7.08845e-06 to 7.0885e-06
Heightened Def Con from 7.08851e-06 to 7.08851e-06
Heightened Def Con from 7.08851e-06 to 7.08851e-06
Heightened Def Con from 7.08852e-06 to 7.08852e-06
Heightened Def Con from 7.08852e-06 to 7.08867e-06
Heightened Def Con from 7.08867e-06 to 7.09367e-06
Heightened Def Con from 7.09567e-06 to 7.09867e-06
Heightened Def Con from 7.16801e-06 to 7.17101e-06
Heightened Def Con from 7.17101e-06 to 7.17114e-06
Heightened Def Con from 7.17115e-06 to 7.17215e-06
Heightened Def Con from 7.17215e-06 to 7.17328e-06
Heightened Def Con from 7.17367e-06 to 7.17667e-06
Heightened Def Con from 7.17975e-06 to 7.18275e-06
Heightened Def Con from 7.18285e-06 to 7.1831e-06
Heightened Def Con from 7.18711e-06 to 7.18824e-06
Heightened Def Con from 7.20727e-06 to 7.20939e-06
Heightened Def Con from 7.21582e-06 to 7.21882e-06
Heightened Def Con from 7.21916e-06 to 7.22216e-06
Heightened Def Con from 7.23323e-06 to 7.23535e-06
Heightened Def Con from 7.23553e-06 to 7.23578e-06
Heightened Def Con from 7.23617e-06 to 7.23917e-06
Heightened Def Con from 7.50148e-06 to 7.5035e-06
Heightened Def Con from 7.50352e-06 to 7.50652e-06
Heightened Def Con from 7.51004e-06 to 7.51204e-06
Heightened Def Con from 7.51204e-06 to 7.51504e-06
Heightened Def Con from 7.51701e-06 to 7.51814e-06
Heightened Def Con from 7.5187e-06 to 7.5247e-06
Heightened Def Con from 7.53512e-06 to 7.53549e-06
Heightened Def Con from 7.55176e-06 to 7.55277e-06
Heightened Def Con from 7.55277e-06 to 7.5539e-06
Heightened Def Con from 7.55394e-06 to 7.55495e-06
Heightened Def Con from 7.55919e-06 to 7.56219e-06
Heightened Def Con from 7.56913e-06 to 7.57026e-06
Heightened Def Con from 7.57029e-06 to 7.57329e-06
Heightened Def Con from 7.5829e-06 to 7.5829e-06
Heightened Def Con from 7.58298e-06 to 7.58298e-06
Heightened Def Con from 7.58299e-06 to 7.583e-06
Heightened Def Con from 7.58306e-06 to 7.5831e-06
Heightened Def Con from 7.58344e-06 to 7.58346e-06
Heightened Def Con from 7.58348e-06 to 7.58348e-06
Heightened Def Con from 7.58376e-06 to 7.58377e-06
Heightened Def Con from 7.58378e-06 to 7.58379e-06
Heightened Def Con from 7.58384e-06 to 7.58399e-06
Heightened Def Con from 7.58399e-06 to 7.58426e-06
Heightened Def Con from 7.58473e-06 to 7.58477e-06
Heightened Def Con from 7.58478e-06 to 7.58478e-06
Heightened Def Con from 7.58501e-06 to 7.58505e-06
Heightened Def Con from 7.58537e-06 to 7.58551e-06
Heightened Def Con from 7.58554e-06 to 7.58956e-06
Heightened Def Con from 7.58956e-06 to 7.59356e-06
Heightened Def Con from 7.67905e-06 to 7.68205e-06
Heightened Def Con from 7.68617e-06 to 7.68819e-06
Heightened Def Con from 7.68824e-06 to 7.69124e-06
Heightened Def Con from 7.86455e-06 to 7.86568e-06
Heightened Def Con from 7.86572e-06 to 7.86673e-06
Heightened Def Con from 7.86698e-06 to 7.86998e-06
Heightened Def Con from 7.97808e-06 to 7.98008e-06
Heightened Def Con from 8.00051e-06 to 8.00351e-06
Heightened Def Con from 8.00351e-06 to 8.00564e-06
Heightened Def Con from 8.00564e-06 to 8.00864e-06
Heightened Def Con from 8.01069e-06 to 8.01369e-06
Heightened Def Con from 8.016e-06 to 8.02113e-06
Heightened Def Con from 8.02138e-06 to 8.02538e-06
Heightened Def Con from 8.02541e-06 to 8.02643e-06
Heightened Def Con from 8.02643e-06 to 8.02643e-06
Heightened Def Con from 8.02643e-06 to 8.02645e-06
Heightened Def Con from 8.02645e-06 to 8.02745e-06
Heightened Def Con from 8.02745e-06 to 8.03045e-06
Heightened Def Con from 8.04098e-06 to 8.04398e-06
Heightened Def Con from 8.05495e-06 to 8.05707e-06
Heightened Def Con from 8.05762e-06 to 8.06062e-06
Heightened Def Con from 8.06172e-06 to 8.06197e-06
Heightened Def Con from 8.06211e-06 to 8.06423e-06
Heightened Def Con from 8.06645e-06 to 8.0667e-06
Heightened Def Con from 8.0667e-06 to 8.06673e-06
Heightened Def Con from 8.06673e-06 to 8.06786e-06
Heightened Def Con from 8.06812e-06 to 8.06924e-06
Heightened Def Con from 8.0695e-06 to 8.07163e-06
Heightened Def Con from 8.07166e-06 to 8.07267e-06
Heightened Def Con from 8.07267e-06 to 8.0738e-06
Heightened Def Con from 8.07467e-06 to 8.07669e-06
Heightened Def Con from 8.07675e-06 to 8.07675e-06
Heightened Def Con from 8.07675e-06 to 8.07688e-06
Heightened Def Con from 8.07688e-06 to 8.07889e-06
Heightened Def Con from 8.07892e-06 to 8.07895e-06
Heightened Def Con from 8.07896e-06 to 8.07896e-06
Heightened Def Con from 8.07896e-06 to 8.07897e-06
Heightened Def Con from 8.07897e-06 to 8.07897e-06
Heightened Def Con from 8.07897e-06 to 8.079e-06
Heightened Def Con from 8.07907e-06 to 8.07907e-06
Heightened Def Con from 8.07907e-06 to 8.07907e-06
Heightened Def Con from 8.07907e-06 to 8.0791e-06
Heightened Def Con from 8.0792e-06 to 8.07922e-06
Heightened Def Con from 8.07922e-06 to 8.07925e-06
Heightened Def Con from 8.07928e-06 to 8.0793e-06
Heightened Def Con from 8.0793e-06 to 8.07932e-06
Heightened Def Con from 8.07933e-06 to 8.07933e-06
Heightened Def Con from 8.07933e-06 to 8.07936e-06
Heightened Def Con from 8.07946e-06 to 8.07946e-06
Heightened Def Con from 8.07946e-06 to 8.07946e-06
Heightened Def Con from 8.07946e-06 to 8.07946e-06
Heightened Def Con from 8.07946e-06 to 8.07946e-06
Heightened Def Con from 8.07946e-06 to 8.07948e-06
Heightened Def Con from 8.07948e-06 to 8.07948e-06
Heightened Def Con from 8.07948e-06 to 8.07951e-06
Heightened Def Con from 8.07951e-06 to 8.07951e-06
Heightened Def Con from 8.07951e-06 to 8.07952e-06
Heightened Def Con from 8.07952e-06 to 8.07952e-06
Heightened Def Con from 8.07952e-06 to 8.07952e-06
Heightened Def Con from 8.07952e-06 to 8.07954e-06
Heightened Def Con from 8.07954e-06 to 8.07954e-06
Heightened Def Con from 8.07954e-06 to 8.07958e-06
Heightened Def Con from 8.07959e-06 to 8.07959e-06
Heightened Def Con from 8.07959e-06 to 8.07984e-06
Heightened Def Con from 8.07984e-06 to 8.08784e-06
Heightened Def Con from 8.08785e-06 to 8.08785e-06
Heightened Def Con from 8.08786e-06 to 8.08886e-06
Heightened Def Con from 8.08886e-06 to 8.08886e-06
Heightened Def Con from 8.08886e-06 to 8.08889e-06
Heightened Def Con from 8.08894e-06 to 8.08897e-06
Heightened Def Con from 8.08897e-06 to 8.089e-06
Heightened Def Con from 8.0891e-06 to 8.08913e-06
Heightened Def Con from 8.08923e-06 to 8.08924e-06
Heightened Def Con from 8.08924e-06 to 8.08926e-06
Heightened Def Con from 8.08926e-06 to 8.08928e-06
Heightened Def Con from 8.08928e-06 to 8.08931e-06
Heightened Def Con from 8.0894e-06 to 8.0894e-06
Heightened Def Con from 8.0894e-06 to 8.0894e-06
Heightened Def Con from 8.0894e-06 to 8.0894e-06
Heightened Def Con from 8.08942e-06 to 8.08945e-06
Heightened Def Con from 8.08957e-06 to 8.08959e-06
Heightened Def Con from 8.08959e-06 to 8.08959e-06
Heightened Def Con from 8.08959e-06 to 8.08959e-06
Heightened Def Con from 8.08959e-06 to 8.08962e-06
Heightened Def Con from 8.08963e-06 to 8.08965e-06
Heightened Def Con from 8.08965e-06 to 8.08965e-06
Heightened Def Con from 8.08965e-06 to 8.08969e-06
Heightened Def Con from 8.08971e-06 to 8.08971e-06
Heightened Def Con from 8.08971e-06 to 8.08975e-06
Heightened Def Con from 8.08975e-06 to 8.08979e-06
Heightened Def Con from 8.08979e-06 to 8.08982e-06
Heightened Def Con from 8.08982e-06 to 8.08982e-06
Heightened Def Con from 8.08982e-06 to 8.08983e-06
Heightened Def Con from 8.08983e-06 to 8.08983e-06
Heightened Def Con from 8.08983e-06 to 8.08983e-06
Heightened Def Con from 8.08983e-06 to 8.08983e-06
Heightened Def Con from 8.08983e-06 to 8.08988e-06
Heightened Def Con from 8.08993e-06 to 8.08996e-06
Heightened Def Con from 8.08996e-06 to 8.08998e-06
Heightened Def Con from 8.08998e-06 to 8.09001e-06
Heightened Def Con from 8.09001e-06 to 8.09001e-06
Heightened Def Con from 8.09001e-06 to 8.09001e-06
Heightened Def Con from 8.09002e-06 to 8.09002e-06
Heightened Def Con from 8.09003e-06 to 8.09003e-06
Heightened Def Con from 8.09003e-06 to 8.09003e-06
Heightened Def Con from 8.09003e-06 to 8.09006e-06
Heightened Def Con from 8.09006e-06 to 8.09006e-06
Heightened Def Con from 8.09006e-06 to 8.09009e-06
Heightened Def Con from 8.09009e-06 to 8.09009e-06
Heightened Def Con from 8.0901e-06 to 8.0901e-06
Heightened Def Con from 8.0901e-06 to 8.0901e-06
Heightened Def Con from 8.0901e-06 to 8.0901e-06
Heightened Def Con from 8.0901e-06 to 8.0901e-06
Heightened Def Con from 8.0901e-06 to 8.0901e-06
Heightened Def Con from 8.0901e-06 to 8.09014e-06
Heightened Def Con from 8.09014e-06 to 8.09017e-06
Heightened Def Con from 8.09017e-06 to 8.09018e-06
Heightened Def Con from 8.09018e-06 to 8.09018e-06
Heightened Def Con from 8.09018e-06 to 8.09019e-06
Heightened Def Con from 8.09019e-06 to 8.09019e-06
Heightened Def Con from 8.09019e-06 to 8.09019e-06
Heightened Def Con from 8.09019e-06 to 8.09019e-06
Heightened Def Con from 8.09019e-06 to 8.0902e-06
Heightened Def Con from 8.0902e-06 to 8.09021e-06
Heightened Def Con from 8.09022e-06 to 8.09022e-06
Heightened Def Con from 8.09022e-06 to 8.09025e-06
Heightened Def Con from 8.09025e-06 to 8.09026e-06
Heightened Def Con from 8.09026e-06 to 8.0903e-06
Heightened Def Con from 8.0903e-06 to 8.09031e-06
Heightened Def Con from 8.09031e-06 to 8.09031e-06
Heightened Def Con from 8.09031e-06 to 8.09034e-06
Heightened Def Con from 8.09037e-06 to 8.09038e-06
Heightened Def Con from 8.09038e-06 to 8.09039e-06
Heightened Def Con from 8.09039e-06 to 8.09044e-06
Heightened Def Con from 8.09044e-06 to 8.09046e-06
Heightened Def Con from 8.09046e-06 to 8.09046e-06
Heightened Def Con from 8.09046e-06 to 8.09046e-06
Heightened Def Con from 8.09047e-06 to 8.09047e-06
Heightened Def Con from 8.09047e-06 to 8.09047e-06
Heightened Def Con from 8.09047e-06 to 8.09047e-06
Heightened Def Con from 8.09047e-06 to 8.09047e-06
Heightened Def Con from 8.09047e-06 to 8.09047e-06
Heightened Def Con from 8.09047e-06 to 8.09049e-06
Heightened Def Con from 8.09049e-06 to 8.0905e-06
Heightened Def Con from 8.0905e-06 to 8.0905e-06
Heightened Def Con from 8.0905e-06 to 8.0905e-06
Heightened Def Con from 8.0905e-06 to 8.0905e-06
Heightened Def Con from 8.0905e-06 to 8.0905e-06
Heightened Def Con from 8.0905e-06 to 8.09051e-06
Heightened Def Con from 8.09051e-06 to 8.09055e-06
Heightened Def Con from 8.09055e-06 to 8.09055e-06
Heightened Def Con from 8.09055e-06 to 8.09055e-06
Heightened Def Con from 8.09055e-06 to 8.09055e-06
Heightened Def Con from 8.09055e-06 to 8.09055e-06
Heightened Def Con from 8.09055e-06 to 8.09056e-06
Heightened Def Con from 8.09056e-06 to 8.09075e-06
Heightened Def Con from 8.09075e-06 to 8.09275e-06
Heightened Def Con from 8.09275e-06 to 8.09575e-06
Heightened Def Con from 8.10855e-06 to 8.11067e-06
Heightened Def Con from 8.1107e-06 to 8.11095e-06
Heightened Def Con from 8.1112e-06 to 8.11122e-06
Heightened Def Con from 8.11125e-06 to 8.1115e-06
Heightened Def Con from 8.1115e-06 to 8.1145e-06
Heightened Def Con from 8.14297e-06 to 8.14597e-06
Heightened Def Con from 8.16019e-06 to 8.16119e-06
Heightened Def Con from 8.16127e-06 to 8.16527e-06
Heightened Def Con from 8.17004e-06 to 8.17029e-06
Heightened Def Con from 8.17098e-06 to 8.17398e-06
Heightened Def Con from 8.17467e-06 to 8.17467e-06
Heightened Def Con from 8.17468e-06 to 8.17493e-06
Heightened Def Con from 8.18135e-06 to 8.1816e-06
Heightened Def Con from 8.18191e-06 to 8.18205e-06
Heightened Def Con from 8.18237e-06 to 8.18241e-06
Heightened Def Con from 8.18244e-06 to 8.18544e-06
Heightened Def Con from 8.20642e-06 to 8.20667e-06
Heightened Def Con from 8.20676e-06 to 8.20713e-06
Heightened Def Con from 8.20741e-06 to 8.20742e-06
Heightened Def Con from 8.20743e-06 to 8.20769e-06
Heightened Def Con from 8.20769e-06 to 8.21069e-06
Heightened Def Con from 8.2143e-06 to 8.21455e-06
Heightened Def Con from 8.21457e-06 to 8.21669e-06
Heightened Def Con from 8.33968e-06 to 8.34268e-06
Heightened Def Con from 8.50007e-06 to 8.50307e-06
Heightened Def Con from 8.50324e-06 to 8.50437e-06
Heightened Def Con from 8.50447e-06 to 8.50747e-06
Heightened Def Con from 8.50784e-06 to 8.51196e-06
Heightened Def Con from 8.51508e-06 to 8.51808e-06
Heightened Def Con from 8.51809e-06 to 8.52023e-06
Heightened Def Con from 8.5207e-06 to 8.52283e-06
Heightened Def Con from 8.53695e-06 to 8.53995e-06
Heightened Def Con from 8.55365e-06 to 8.55665e-06
Heightened Def Con from 8.55743e-06 to 8.56043e-06
Heightened Def Con from 8.56679e-06 to 8.56979e-06
Heightened Def Con from 8.57033e-06 to 8.57333e-06
Heightened Def Con from 8.57369e-06 to 8.57669e-06
Heightened Def Con from 8.58252e-06 to 8.58252e-06
Heightened Def Con from 8.58253e-06 to 8.58256e-06
Heightened Def Con from 8.58266e-06 to 8.58266e-06
Heightened Def Con from 8.58303e-06 to 8.58304e-06
Heightened Def Con from 8.58305e-06 to 8.58305e-06
Heightened Def Con from 8.58305e-06 to 8.58309e-06
Heightened Def Con from 8.58312e-06 to 8.58314e-06
Heightened Def Con from 8.58324e-06 to 8.58329e-06
Heightened Def Con from 8.58332e-06 to 8.58332e-06
Heightened Def Con from 8.58332e-06 to 8.58332e-06
Heightened Def Con from 8.58338e-06 to 8.58341e-06
Heightened Def Con from 8.58342e-06 to 8.58345e-06
Heightened Def Con from 8.5836e-06 to 8.58364e-06
Heightened Def Con from 8.58365e-06 to 8.58368e-06
Heightened Def Con from 8.58368e-06 to 8.58369e-06
Heightened Def Con from 8.58369e-06 to 8.58369e-06
Heightened Def Con from 8.58369e-06 to 8.58369e-06
Heightened Def Con from 8.58369e-06 to 8.5837e-06
Heightened Def Con from 8.58396e-06 to 8.5841e-06
Heightened Def Con from 8.58462e-06 to 8.58564e-06
Heightened Def Con from 8.58571e-06 to 8.58672e-06
Heightened Def Con from 8.58706e-06 to 8.58744e-06
Heightened Def Con from 8.58745e-06 to 8.58746e-06
Heightened Def Con from 8.58751e-06 to 8.58963e-06
Heightened Def Con from 8.59086e-06 to 8.59089e-06
Heightened Def Con from 8.59089e-06 to 8.59302e-06
Heightened Def Con from 8.59333e-06 to 8.59333e-06
Heightened Def Con from 8.5935e-06 to 8.59552e-06
Heightened Def Con from 8.59621e-06 to 8.59921e-06
Heightened Def Con from 8.60909e-06 to 8.61121e-06
Heightened Def Con from 8.61224e-06 to 8.61436e-06
Heightened Def Con from 8.61453e-06 to 8.61653e-06
Heightened Def Con from 8.61797e-06 to 8.61822e-06
Heightened Def Con from 8.61905e-06 to 8.61917e-06
Heightened Def Con from 8.61917e-06 to 8.6213e-06
Heightened Def Con from 8.62348e-06 to 8.62349e-06
Heightened Def Con from 8.6235e-06 to 8.62353e-06
Heightened Def Con from 8.66753e-06 to 8.67053e-06
Heightened Def Con from 8.80046e-06 to 8.80258e-06
Heightened Def Con from 8.80974e-06 to 8.81274e-06
Heightened Def Con from 8.81415e-06 to 8.81517e-06
Heightened Def Con from 8.81517e-06 to 8.81517e-06
Heightened Def Con from 8.81517e-06 to 8.81555e-06
Heightened Def Con from 8.82338e-06 to 8.82638e-06
Heightened Def Con from 8.8337e-06 to 8.8367e-06
Heightened Def Con from 8.83813e-06 to 8.83851e-06
Heightened Def Con from 8.83852e-06 to 8.83855e-06
Heightened Def Con from 8.83871e-06 to 8.84073e-06
Heightened Def Con from 8.84088e-06 to 8.84088e-06
Heightened Def Con from 8.84088e-06 to 8.8429e-06
Heightened Def Con from 8.84299e-06 to 8.84501e-06
Heightened Def Con from 8.84501e-06 to 8.84801e-06
Heightened Def Con from 8.90671e-06 to 8.90685e-06
Heightened Def Con from 8.90685e-06 to 8.9071e-06
Heightened Def Con from 8.90737e-06 to 8.90837e-06
Heightened Def Con from 8.90837e-06 to 8.90937e-06
Heightened Def Con from 8.90938e-06 to 8.90963e-06
Heightened Def Con from 8.91061e-06 to 8.91061e-06
Heightened Def Con from 8.91062e-06 to 8.91063e-06
Heightened Def Con from 8.91063e-06 to 8.91063e-06
Heightened Def Con from 8.91064e-06 to 8.91064e-06
Heightened Def Con from 8.91064e-06 to 8.91089e-06
Heightened Def Con from 8.91089e-06 to 8.91189e-06
Heightened Def Con from 8.91189e-06 to 8.91192e-06
Heightened Def Con from 8.91192e-06 to 8.91294e-06
Heightened Def Con from 8.91296e-06 to 8.91311e-06
Heightened Def Con from 8.91311e-06 to 8.91314e-06
Heightened Def Con from 8.91315e-06 to 8.91416e-06
Heightened Def Con from 8.91418e-06 to 8.91418e-06
Heightened Def Con from 8.91419e-06 to 8.91531e-06
Heightened Def Con from 8.91534e-06 to 8.91534e-06
Heightened Def Con from 8.91535e-06 to 8.91635e-06
Heightened Def Con from 8.91636e-06 to 8.91661e-06
Heightened Def Con from 8.91664e-06 to 8.91689e-06
Heightened Def Con from 8.91786e-06 to 8.91786e-06
Heightened Def Con from 8.91791e-06 to 8.91904e-06
Heightened Def Con from 8.92694e-06 to 8.92719e-06
Heightened Def Con from 8.9272e-06 to 8.92723e-06
Heightened Def Con from 8.92723e-06 to 8.92748e-06
Heightened Def Con from 8.92926e-06 to 8.9294e-06
Heightened Def Con from 8.9294e-06 to 8.92965e-06
Heightened Def Con from 8.93055e-06 to 8.93069e-06
Heightened Def Con from 8.93116e-06 to 8.93217e-06
Heightened Def Con from 8.93221e-06 to 8.93246e-06
Heightened Def Con from 8.93246e-06 to 8.9326e-06
Heightened Def Con from 8.9326e-06 to 8.93263e-06
Heightened Def Con from 8.93264e-06 to 8.93289e-06
Heightened Def Con from 8.9329e-06 to 8.9329e-06
Heightened Def Con from 8.9329e-06 to 8.9339e-06
Heightened Def Con from 8.93391e-06 to 8.93503e-06
Heightened Def Con from 8.93503e-06 to 8.93503e-06
Heightened Def Con from 8.93503e-06 to 8.93503e-06
Heightened Def Con from 8.93504e-06 to 8.93504e-06
Heightened Def Con from 8.93504e-06 to 8.93504e-06
Heightened Def Con from 8.93504e-06 to 8.93506e-06
Heightened Def Con from 8.93506e-06 to 8.93518e-06
Heightened Def Con from 8.9352e-06 to 8.93521e-06
Heightened Def Con from 8.93521e-06 to 8.93524e-06
Heightened Def Con from 8.93524e-06 to 8.93524e-06
Heightened Def Con from 8.93524e-06 to 8.93524e-06
Heightened Def Con from 8.93525e-06 to 8.93526e-06
Heightened Def Con from 8.93526e-06 to 8.93526e-06
Heightened Def Con from 8.93526e-06 to 8.93526e-06
Heightened Def Con from 8.93526e-06 to 8.93626e-06
Heightened Def Con from 8.93627e-06 to 8.9363e-06
Heightened Def Con from 8.93633e-06 to 8.93658e-06
Heightened Def Con from 8.93689e-06 to 8.93714e-06
Heightened Def Con from 8.93718e-06 to 8.93718e-06
Heightened Def Con from 8.93718e-06 to 8.93743e-06
Heightened Def Con from 8.93774e-06 to 8.93776e-06
Heightened Def Con from 8.93776e-06 to 8.93801e-06
Heightened Def Con from 8.93813e-06 to 8.93827e-06
Heightened Def Con from 8.93828e-06 to 8.93929e-06
Heightened Def Con from 8.93929e-06 to 8.93954e-06
Heightened Def Con from 8.93967e-06 to 8.94167e-06
Heightened Def Con from 8.94167e-06 to 8.94167e-06
Heightened Def Con from 8.94171e-06 to 8.94185e-06
Heightened Def Con from 8.94212e-06 to 8.94215e-06
Heightened Def Con from 8.94216e-06 to 8.94219e-06
Heightened Def Con from 8.9422e-06 to 8.94245e-06
Heightened Def Con from 8.94322e-06 to 8.94323e-06
Heightened Def Con from 8.94323e-06 to 8.94325e-06
Heightened Def Con from 8.94325e-06 to 8.9435e-06
Heightened Def Con from 8.94408e-06 to 8.9441e-06
Heightened Def Con from 8.9441e-06 to 8.94423e-06
Heightened Def Con from 8.94423e-06 to 8.94423e-06
Heightened Def Con from 8.94423e-06 to 8.94423e-06
Heightened Def Con from 8.94423e-06 to 8.94448e-06
Heightened Def Con from 8.94473e-06 to 8.94474e-06
Heightened Def Con from 8.94474e-06 to 8.94476e-06
Heightened Def Con from 8.94476e-06 to 8.9449e-06
Heightened Def Con from 8.94491e-06 to 8.94491e-06
Heightened Def Con from 8.94491e-06 to 8.94591e-06
Heightened Def Con from 8.94592e-06 to 8.94617e-06
Heightened Def Con from 8.94623e-06 to 8.94635e-06
Heightened Def Con from 8.94635e-06 to 8.94748e-06
Heightened Def Con from 8.94757e-06 to 8.94771e-06
Heightened Def Con from 8.94775e-06 to 8.94888e-06
Heightened Def Con from 8.94888e-06 to 8.949e-06
Heightened Def Con from 8.94901e-06 to 8.94902e-06
Heightened Def Con from 8.94902e-06 to 8.94915e-06
Heightened Def Con from 8.94927e-06 to 8.9504e-06
Heightened Def Con from 8.95043e-06 to 8.95144e-06
Heightened Def Con from 8.95145e-06 to 8.95146e-06
Heightened Def Con from 8.95146e-06 to 8.95259e-06
Heightened Def Con from 8.95263e-06 to 8.95375e-06
Heightened Def Con from 8.95429e-06 to 8.95454e-06
Heightened Def Con from 8.95507e-06 to 8.95509e-06
Heightened Def Con from 8.95509e-06 to 8.95534e-06
Heightened Def Con from 8.95832e-06 to 8.95844e-06
Heightened Def Con from 8.95844e-06 to 8.95857e-06
Heightened Def Con from 8.95857e-06 to 8.95957e-06
Heightened Def Con from 8.95958e-06 to 8.95958e-06
Heightened Def Con from 8.95958e-06 to 8.95958e-06
Heightened Def Con from 8.95958e-06 to 8.95972e-06
Heightened Def Con from 8.95978e-06 to 8.95981e-06
Heightened Def Con from 8.95985e-06 to 8.95988e-06
Heightened Def Con from 8.95991e-06 to 8.95991e-06
Heightened Def Con from 8.95991e-06 to 8.95991e-06
Heightened Def Con from 8.95992e-06 to 8.95995e-06
Heightened Def Con from 8.96001e-06 to 8.96103e-06
Heightened Def Con from 8.96103e-06 to 8.96215e-06
Heightened Def Con from 8.96241e-06 to 8.96243e-06
Heightened Def Con from 8.96243e-06 to 8.96245e-06
Heightened Def Con from 8.96245e-06 to 8.96248e-06
Heightened Def Con from 8.96279e-06 to 8.96304e-06
Heightened Def Con from 8.96332e-06 to 8.96332e-06
Heightened Def Con from 8.96332e-06 to 8.96336e-06
Heightened Def Con from 8.96339e-06 to 8.96342e-06
Heightened Def Con from 8.96343e-06 to 8.96357e-06
Heightened Def Con from 8.96362e-06 to 8.96464e-06
Heightened Def Con from 8.96474e-06 to 8.96587e-06
Heightened Def Con from 8.96621e-06 to 8.96621e-06
Heightened Def Con from 8.96622e-06 to 8.96647e-06
Heightened Def Con from 8.96647e-06 to 8.96661e-06
Heightened Def Con from 8.96665e-06 to 8.96666e-06
Heightened Def Con from 8.96666e-06 to 8.9668e-06
Heightened Def Con from 8.96703e-06 to 8.96703e-06
Heightened Def Con from 8.96703e-06 to 8.96716e-06
Heightened Def Con from 8.96716e-06 to 8.96716e-06
Heightened Def Con from 8.96716e-06 to 8.96741e-06
Heightened Def Con from 8.96756e-06 to 8.96759e-06
Heightened Def Con from 8.96762e-06 to 8.96762e-06
Heightened Def Con from 8.96762e-06 to 8.96864e-06
Heightened Def Con from 8.96895e-06 to 8.96995e-06
Heightened Def Con from 8.96995e-06 to 8.97195e-06
Heightened Def Con from 8.97196e-06 to 8.97221e-06
Heightened Def Con from 8.97227e-06 to 8.97231e-06
Heightened Def Con from 8.97242e-06 to 8.97254e-06
Heightened Def Con from 8.97255e-06 to 8.97258e-06
Heightened Def Con from 8.9729e-06 to 8.97291e-06
Heightened Def Con from 8.97291e-06 to 8.97292e-06
Heightened Def Con from 8.97292e-06 to 8.97292e-06
Heightened Def Con from 8.97292e-06 to 8.97292e-06
Heightened Def Con from 8.97292e-06 to 8.97394e-06
Heightened Def Con from 8.97405e-06 to 8.97418e-06
Heightened Def Con from 8.97418e-06 to 8.97418e-06
Heightened Def Con from 8.97418e-06 to 8.9742e-06
Heightened Def Con from 8.9742e-06 to 8.97434e-06
Heightened Def Con from 8.97434e-06 to 8.97435e-06
Heightened Def Con from 8.97435e-06 to 8.9746e-06
Heightened Def Con from 8.9746e-06 to 8.97462e-06
Heightened Def Con from 8.97462e-06 to 8.97464e-06
Heightened Def Con from 8.9747e-06 to 8.97582e-06
Heightened Def Con from 8.97583e-06 to 8.97684e-06
Heightened Def Con from 8.97684e-06 to 8.97786e-06
Heightened Def Con from 8.97786e-06 to 8.97899e-06
Heightened Def Con from 8.979e-06 to 8.979e-06
Heightened Def Con from 8.979e-06 to 8.979e-06
Heightened Def Con from 8.979e-06 to 8.97913e-06
Heightened Def Con from 8.97913e-06 to 8.97916e-06
Heightened Def Con from 8.97924e-06 to 8.97925e-06
Heightened Def Con from 8.97926e-06 to 8.97929e-06
Heightened Def Con from 8.97929e-06 to 8.98041e-06
Heightened Def Con from 8.98073e-06 to 8.98098e-06
Heightened Def Con from 8.98123e-06 to 8.98235e-06
Heightened Def Con from 8.98258e-06 to 8.98259e-06
Heightened Def Con from 8.98259e-06 to 8.9826e-06
Heightened Def Con from 8.9826e-06 to 8.98272e-06
Heightened Def Con from 8.98272e-06 to 8.98272e-06
Heightened Def Con from 8.98272e-06 to 8.98374e-06
Heightened Def Con from 8.98378e-06 to 8.98478e-06
Heightened Def Con from 8.98478e-06 to 8.98579e-06
Heightened Def Con from 8.9858e-06 to 8.9858e-06
Heightened Def Con from 8.98581e-06 to 8.98595e-06
Heightened Def Con from 8.98598e-06 to 8.987e-06
Heightened Def Con from 8.987e-06 to 8.98703e-06
Heightened Def Con from 8.98706e-06 to 8.98706e-06
Heightened Def Con from 8.98706e-06 to 8.98906e-06
Heightened Def Con from 8.98908e-06 to 8.9901e-06
Heightened Def Con from 8.99011e-06 to 8.99036e-06
Heightened Def Con from 8.99059e-06 to 8.99059e-06
Heightened Def Con from 8.99059e-06 to 8.99072e-06
Heightened Def Con from 8.99073e-06 to 8.99098e-06
Heightened Def Con from 8.99101e-06 to 8.99213e-06
Heightened Def Con from 8.99313e-06 to 8.99414e-06
Heightened Def Con from 8.99417e-06 to 8.99431e-06
Heightened Def Con from 8.99432e-06 to 8.99632e-06
Heightened Def Con from 8.99635e-06 to 8.9966e-06
Heightened Def Con from 8.99661e-06 to 8.99661e-06
Heightened Def Con from 8.99661e-06 to 8.99663e-06
Heightened Def Con from 8.99664e-06 to 8.99864e-06
Heightened Def Con from 8.99864e-06 to 8.99877e-06
Heightened Def Con from 8.99878e-06 to 8.99878e-06
Heightened Def Con from 8.99878e-06 to 8.99878e-06
Heightened Def Con from 8.99878e-06 to 8.9988e-06
Heightened Def Con from 8.9988e-06 to 8.99893e-06
Heightened Def Con from 8.99893e-06 to 8.99907e-06
Heightened Def Con from 8.99908e-06 to 8.99911e-06
Heightened Def Con from 8.99917e-06 to 9.00018e-06
Heightened Def Con from 9.00022e-06 to 9.00022e-06
Heightened Def Con from 9.00022e-06 to 9.00024e-06
Heightened Def Con from 9.00024e-06 to 9.00125e-06
Heightened Def Con from 9.00131e-06 to 9.00131e-06
Heightened Def Con from 9.00141e-06 to 9.00166e-06
Heightened Def Con from 9.00324e-06 to 9.00349e-06
Heightened Def Con from 9.00354e-06 to 9.00466e-06
Heightened Def Con from 9.00466e-06 to 9.00504e-06
Heightened Def Con from 9.00504e-06 to 9.00504e-06
Heightened Def Con from 9.00504e-06 to 9.00616e-06
Heightened Def Con from 9.00618e-06 to 9.00618e-06
Heightened Def Con from 9.00618e-06 to 9.00618e-06
Heightened Def Con from 9.00618e-06 to 9.00632e-06
Heightened Def Con from 9.00635e-06 to 9.00837e-06
Heightened Def Con from 9.00837e-06 to 9.00837e-06
Heightened Def Con from 9.00839e-06 to 9.00952e-06
Heightened Def Con from 9.0098e-06 to 9.00983e-06
Heightened Def Con from 9.00983e-06 to 9.01083e-06
Heightened Def Con from 9.01086e-06 to 9.01091e-06
Heightened Def Con from 9.01092e-06 to 9.01204e-06
Heightened Def Con from 9.01211e-06 to 9.01225e-06
Heightened Def Con from 9.01225e-06 to 9.01225e-06
Heightened Def Con from 9.01225e-06 to 9.01225e-06
Heightened Def Con from 9.01225e-06 to 9.01225e-06
Heightened Def Con from 9.01226e-06 to 9.01526e-06
Heightened Def Con from 9.01727e-06 to 9.01929e-06
Heightened Def Con from 9.01929e-06 to 9.01929e-06
Heightened Def Con from 9.01929e-06 to 9.01933e-06
Heightened Def Con from 9.01933e-06 to 9.01946e-06
Heightened Def Con from 9.01946e-06 to 9.02146e-06
Heightened Def Con from 9.02146e-06 to 9.02146e-06
Heightened Def Con from 9.02146e-06 to 9.02147e-06
Heightened Def Con from 9.02147e-06 to 9.02348e-06
Heightened Def Con from 9.02349e-06 to 9.02349e-06
Heightened Def Con from 9.0235e-06 to 9.02352e-06
Heightened Def Con from 9.02352e-06 to 9.02465e-06
Heightened Def Con from 9.02465e-06 to 9.02465e-06
Heightened Def Con from 9.02465e-06 to 9.02468e-06
Heightened Def Con from 9.02477e-06 to 9.02479e-06
Heightened Def Con from 9.02479e-06 to 9.02579e-06
Heightened Def Con from 9.02579e-06 to 9.02779e-06
Heightened Def Con from 9.02781e-06 to 9.02882e-06
Heightened Def Con from 9.02882e-06 to 9.02882e-06
Heightened Def Con from 9.02882e-06 to 9.02982e-06
Heightened Def Con from 9.02982e-06 to 9.02982e-06
Heightened Def Con from 9.02983e-06 to 9.03195e-06
Heightened Def Con from 9.03202e-06 to 9.03314e-06
Heightened Def Con from 9.03318e-06 to 9.03318e-06
Heightened Def Con from 9.03319e-06 to 9.03519e-06
Heightened Def Con from 9.03519e-06 to 9.03621e-06
Heightened Def Con from 9.03622e-06 to 9.03723e-06
Heightened Def Con from 9.03725e-06 to 9.03825e-06
Heightened Def Con from 9.03825e-06 to 9.03825e-06
Heightened Def Con from 9.03825e-06 to 9.03826e-06
Heightened Def Con from 9.03827e-06 to 9.03827e-06
Heightened Def Con from 9.03827e-06 to 9.03852e-06
Heightened Def Con from 9.03852e-06 to 9.04152e-06
Heightened Def Con from 9.04826e-06 to 9.04829e-06
Heightened Def Con from 9.04832e-06 to 9.04836e-06
Heightened Def Con from 9.04845e-06 to 9.04845e-06
Heightened Def Con from 9.04845e-06 to 9.04945e-06
Heightened Def Con from 9.04945e-06 to 9.04945e-06
Heightened Def Con from 9.04945e-06 to 9.04946e-06
Heightened Def Con from 9.04946e-06 to 9.05246e-06
Heightened Def Con from 9.05459e-06 to 9.05559e-06
Heightened Def Con from 9.05559e-06 to 9.05559e-06
Heightened Def Con from 9.05559e-06 to 9.05586e-06
Heightened Def Con from 9.05589e-06 to 9.05689e-06
Heightened Def Con from 9.0569e-06 to 9.05802e-06
Heightened Def Con from 9.05885e-06 to 9.06086e-06
Heightened Def Con from 9.0609e-06 to 9.0609e-06
Heightened Def Con from 9.0609e-06 to 9.06203e-06
Heightened Def Con from 9.06228e-06 to 9.06528e-06
Heightened Def Con from 9.06992e-06 to 9.07092e-06
Heightened Def Con from 9.07093e-06 to 9.07193e-06
Heightened Def Con from 9.07193e-06 to 9.07293e-06
Heightened Def Con from 9.07293e-06 to 9.07593e-06
Heightened Def Con from 9.07595e-06 to 9.07708e-06
Heightened Def Con from 9.07883e-06 to 9.07886e-06
Heightened Def Con from 9.07891e-06 to 9.08191e-06
Heightened Def Con from 9.08192e-06 to 9.08192e-06
Heightened Def Con from 9.08192e-06 to 9.08195e-06
Heightened Def Con from 9.08198e-06 to 9.08201e-06
Heightened Def Con from 9.08202e-06 to 9.08203e-06
Heightened Def Con from 9.08203e-06 to 9.08204e-06
Heightened Def Con from 9.08204e-06 to 9.08204e-06
Heightened Def Con from 9.08205e-06 to 9.08205e-06
Heightened Def Con from 9.08205e-06 to 9.08206e-06
Heightened Def Con from 9.08207e-06 to 9.08207e-06
Heightened Def Con from 9.08207e-06 to 9.08209e-06
Heightened Def Con from 9.0821e-06 to 9.08213e-06
Heightened Def Con from 9.08213e-06 to 9.08216e-06
Heightened Def Con from 9.08216e-06 to 9.08216e-06
Heightened Def Con from 9.08216e-06 to 9.08217e-06
Heightened Def Con from 9.08217e-06 to 9.08218e-06
Heightened Def Con from 9.08219e-06 to 9.08222e-06
Heightened Def Con from 9.08222e-06 to 9.08222e-06
Heightened Def Con from 9.08222e-06 to 9.08224e-06
Heightened Def Con from 9.08224e-06 to 9.08227e-06
Heightened Def Con from 9.08238e-06 to 9.08239e-06
Heightened Def Con from 9.08239e-06 to 9.08239e-06
Heightened Def Con from 9.08246e-06 to 9.08248e-06
Heightened Def Con from 9.08248e-06 to 9.08248e-06
Heightened Def Con from 9.08248e-06 to 9.0825e-06
Heightened Def Con from 9.08253e-06 to 9.08253e-06
Heightened Def Con from 9.08253e-06 to 9.08292e-06
Heightened Def Con from 9.08295e-06 to 9.08509e-06
Heightened Def Con from 9.08509e-06 to 9.08611e-06
Heightened Def Con from 9.08631e-06 to 9.08732e-06
Heightened Def Con from 9.08732e-06 to 9.08734e-06
Heightened Def Con from 9.08734e-06 to 9.08734e-06
Heightened Def Con from 9.08734e-06 to 9.08737e-06
Heightened Def Con from 9.08737e-06 to 9.08739e-06
Heightened Def Con from 9.08739e-06 to 9.08739e-06
Heightened Def Con from 9.08739e-06 to 9.0874e-06
Heightened Def Con from 9.0874e-06 to 9.08744e-06
Heightened Def Con from 9.08747e-06 to 9.08749e-06
Heightened Def Con from 9.08749e-06 to 9.08752e-06
Heightened Def Con from 9.08763e-06 to 9.08763e-06
Heightened Def Con from 9.08763e-06 to 9.08766e-06
Heightened Def Con from 9.08776e-06 to 9.08777e-06
Heightened Def Con from 9.08777e-06 to 9.0878e-06
Heightened Def Con from 9.08781e-06 to 9.08781e-06
Heightened Def Con from 9.08781e-06 to 9.08784e-06
Heightened Def Con from 9.08787e-06 to 9.08789e-06
Heightened Def Con from 9.08789e-06 to 9.08789e-06
Heightened Def Con from 9.08789e-06 to 9.08791e-06
Heightened Def Con from 9.08791e-06 to 9.08791e-06
Heightened Def Con from 9.08791e-06 to 9.08791e-06
Heightened Def Con from 9.08791e-06 to 9.08791e-06
Heightened Def Con from 9.08791e-06 to 9.08791e-06
Heightened Def Con from 9.08792e-06 to 9.08795e-06
Heightened Def Con from 9.08795e-06 to 9.08799e-06
Heightened Def Con from 9.08799e-06 to 9.08801e-06
Heightened Def Con from 9.08801e-06 to 9.08804e-06
Heightened Def Con from 9.08804e-06 to 9.08807e-06
Heightened Def Con from 9.08807e-06 to 9.08812e-06
Heightened Def Con from 9.0882e-06 to 9.08821e-06
Heightened Def Con from 9.08821e-06 to 9.08821e-06
Heightened Def Con from 9.08821e-06 to 9.08821e-06
Heightened Def Con from 9.08821e-06 to 9.08826e-06
Heightened Def Con from 9.08826e-06 to 9.08826e-06
Heightened Def Con from 9.08826e-06 to 9.08826e-06
Heightened Def Con from 9.08826e-06 to 9.08827e-06
Heightened Def Con from 9.08827e-06 to 9.0883e-06
Heightened Def Con from 9.0883e-06 to 9.08833e-06
Heightened Def Con from 9.08833e-06 to 9.08835e-06
Heightened Def Con from 9.08835e-06 to 9.08838e-06
Heightened Def Con from 9.08838e-06 to 9.0884e-06
Heightened Def Con from 9.0884e-06 to 9.08845e-06
Heightened Def Con from 9.08847e-06 to 9.08851e-06
Heightened Def Con from 9.08852e-06 to 9.08855e-06
Heightened Def Con from 9.08855e-06 to 9.08859e-06
Heightened Def Con from 9.0886e-06 to 9.08861e-06
Heightened Def Con from 9.08862e-06 to 9.08862e-06
Heightened Def Con from 9.08862e-06 to 9.08863e-06
Heightened Def Con from 9.08864e-06 to 9.08864e-06
Heightened Def Con from 9.08867e-06 to 9.08868e-06
Heightened Def Con from 9.08868e-06 to 9.08868e-06
Heightened Def Con from 9.08868e-06 to 9.0887e-06
Heightened Def Con from 9.0887e-06 to 9.08874e-06
Heightened Def Con from 9.08878e-06 to 9.08878e-06
Heightened Def Con from 9.08878e-06 to 9.0889e-06
Heightened Def Con from 9.0889e-06 to 9.08991e-06
Heightened Def Con from 9.08991e-06 to 9.09104e-06
Heightened Def Con from 9.09105e-06 to 9.09306e-06
Heightened Def Con from 9.09413e-06 to 9.09438e-06
Heightened Def Con from 9.09443e-06 to 9.09555e-06
Heightened Def Con from 9.09668e-06 to 9.0978e-06
Heightened Def Con from 9.09806e-06 to 9.09809e-06
Heightened Def Con from 9.09809e-06 to 9.10022e-06
Heightened Def Con from 9.10053e-06 to 9.10153e-06
Heightened Def Con from 9.10153e-06 to 9.10156e-06
Heightened Def Con from 9.10157e-06 to 9.10157e-06
Heightened Def Con from 9.10157e-06 to 9.10369e-06
Heightened Def Con from 9.10576e-06 to 9.10876e-06
Heightened Def Con from 9.10907e-06 to 9.11207e-06
Heightened Def Con from 9.1121e-06 to 9.1151e-06
Heightened Def Con from 9.11716e-06 to 9.12016e-06
Heightened Def Con from 9.12218e-06 to 9.12218e-06
Heightened Def Con from 9.12222e-06 to 9.12224e-06
Heightened Def Con from 9.12224e-06 to 9.12324e-06
Heightened Def Con from 9.12324e-06 to 9.12624e-06
Heightened Def Con from 9.12832e-06 to 9.13044e-06
Heightened Def Con from 9.13077e-06 to 9.1308e-06
Heightened Def Con from 9.13085e-06 to 9.13285e-06
Heightened Def Con from 9.13285e-06 to 9.13385e-06
Heightened Def Con from 9.13385e-06 to 9.13398e-06
Heightened Def Con from 9.13398e-06 to 9.13698e-06
Heightened Def Con from 9.13907e-06 to 9.14019e-06
Heightened Def Con from 9.14025e-06 to 9.14125e-06
Heightened Def Con from 9.14131e-06 to 9.14332e-06
Heightened Def Con from 9.14333e-06 to 9.1437e-06
Heightened Def Con from 9.14716e-06 to 9.14753e-06
Heightened Def Con from 9.14829e-06 to 9.15031e-06
Heightened Def Con from 9.15031e-06 to 9.15133e-06
Heightened Def Con from 9.15159e-06 to 9.15173e-06
Heightened Def Con from 9.1522e-06 to 9.1532e-06
Heightened Def Con from 9.1532e-06 to 9.1552e-06
Heightened Def Con from 9.1552e-06 to 9.15545e-06
Heightened Def Con from 9.15548e-06 to 9.15573e-06
Heightened Def Con from 9.15604e-06 to 9.15706e-06
Heightened Def Con from 9.167e-06 to 9.17e-06
Heightened Def Con from 9.17025e-06 to 9.17226e-06
Heightened Def Con from 9.18389e-06 to 9.1839e-06
Heightened Def Con from 9.1839e-06 to 9.18391e-06
Heightened Def Con from 9.18431e-06 to 9.18434e-06
Heightened Def Con from 9.19166e-06 to 9.19466e-06
Heightened Def Con from 9.20128e-06 to 9.20165e-06
Heightened Def Con from 9.20169e-06 to 9.20196e-06
Heightened Def Con from 9.20198e-06 to 9.20498e-06
Heightened Def Con from 9.21268e-06 to 9.21381e-06
Heightened Def Con from 9.26598e-06 to 9.26623e-06
Heightened Def Con from 9.26761e-06 to 9.26764e-06
Heightened Def Con from 9.26839e-06 to 9.27139e-06
Heightened Def Con from 9.413e-06 to 9.416e-06
Heightened Def Con from 9.4696e-06 to 9.47073e-06
Heightened Def Con from 9.47083e-06 to 9.47195e-06
Heightened Def Con from 9.47216e-06 to 9.47241e-06
Heightened Def Con from 9.49738e-06 to 9.50038e-06
Heightened Def Con from 9.50064e-06 to 9.50077e-06
Heightened Def Con from 9.50078e-06 to 9.50378e-06
Heightened Def Con from 9.50378e-06 to 9.50678e-06
Heightened Def Con from 9.50678e-06 to 9.50704e-06
Heightened Def Con from 9.50708e-06 to 9.51308e-06
Heightened Def Con from 9.51528e-06 to 9.5153e-06
Heightened Def Con from 9.51533e-06 to 9.51833e-06
Heightened Def Con from 9.51835e-06 to 9.51837e-06
Heightened Def Con from 9.51838e-06 to 9.51963e-06
Heightened Def Con from 9.51994e-06 to 9.52206e-06
Heightened Def Con from 9.52215e-06 to 9.5224e-06
Heightened Def Con from 9.5224e-06 to 9.52265e-06
Heightened Def Con from 9.52273e-06 to 9.52273e-06
Heightened Def Con from 9.52288e-06 to 9.52315e-06
Heightened Def Con from 9.52328e-06 to 9.5233e-06
Heightened Def Con from 9.52332e-06 to 9.52545e-06
Heightened Def Con from 9.5257e-06 to 9.52607e-06
Heightened Def Con from 9.52655e-06 to 9.52768e-06
Heightened Def Con from 9.53673e-06 to 9.54085e-06
Heightened Def Con from 9.54173e-06 to 9.54375e-06
Heightened Def Con from 9.54376e-06 to 9.54676e-06
Heightened Def Con from 9.5539e-06 to 9.55502e-06
Heightened Def Con from 9.55568e-06 to 9.55868e-06
Heightened Def Con from 9.55999e-06 to 9.56101e-06
Heightened Def Con from 9.56102e-06 to 9.56214e-06
Heightened Def Con from 9.57208e-06 to 9.57508e-06
Heightened Def Con from 9.58122e-06 to 9.58323e-06
Heightened Def Con from 9.58387e-06 to 9.58389e-06
Heightened Def Con from 9.58389e-06 to 9.58394e-06
Heightened Def Con from 9.5848e-06 to 9.58481e-06
Heightened Def Con from 9.58482e-06 to 9.58487e-06
Heightened Def Con from 9.58565e-06 to 9.58667e-06
Heightened Def Con from 9.58751e-06 to 9.58851e-06
Heightened Def Con from 9.58885e-06 to 9.58885e-06
Heightened Def Con from 9.58888e-06 to 9.58888e-06
Heightened Def Con from 9.58888e-06 to 9.58926e-06
Heightened Def Con from 9.58926e-06 to 9.59238e-06
Heightened Def Con from 9.59264e-06 to 9.59289e-06
Heightened Def Con from 9.59499e-06 to 9.59612e-06
Heightened Def Con from 9.59688e-06 to 9.5979e-06
Heightened Def Con from 9.59791e-06 to 9.59992e-06
Heightened Def Con from 9.60034e-06 to 9.60334e-06
Heightened Def Con from 9.60413e-06 to 9.60438e-06
Heightened Def Con from 9.60505e-06 to 9.60805e-06
Heightened Def Con from 9.69922e-06 to 9.70124e-06
Heightened Def Con from 9.70151e-06 to 9.70164e-06
Heightened Def Con from 9.70164e-06 to 9.70464e-06
Heightened Def Con from 9.70473e-06 to 9.70685e-06
Heightened Def Con from 9.71274e-06 to 9.71574e-06
Heightened Def Con from 9.71599e-06 to 9.71899e-06
Heightened Def Con from 9.81029e-06 to 9.81142e-06
Heightened Def Con from 9.8119e-06 to 9.8119e-06
Heightened Def Con from 9.8119e-06 to 9.8149e-06
Heightened Def Con from 9.8162e-06 to 9.8162e-06
Heightened Def Con from 9.8162e-06 to 9.81832e-06
Heightened Def Con from 9.82011e-06 to 9.82011e-06
Heightened Def Con from 9.82011e-06 to 9.82311e-06
Heightened Def Con from 9.82844e-06 to 9.82956e-06
Heightened Def Con from 9.83015e-06 to 9.83315e-06
Heightened Def Con from 9.83335e-06 to 9.83372e-06
Heightened Def Con from 9.83383e-06 to 9.83584e-06
Heightened Def Con from 9.83584e-06 to 9.83685e-06
Heightened Def Con from 9.83685e-06 to 9.83985e-06
Heightened Def Con from 9.83985e-06 to 9.84285e-06
Heightened Def Con from 9.84297e-06 to 9.84597e-06
Heightened Def Con from 9.84598e-06 to 9.84599e-06
Heightened Def Con from 9.84599e-06 to 9.84599e-06
Heightened Def Con from 9.84599e-06 to 9.84599e-06
Heightened Def Con from 9.84599e-06 to 9.84899e-06
Heightened Def Con from 9.84924e-06 to 9.85124e-06
Heightened Def Con from 9.85124e-06 to 9.85326e-06
Heightened Def Con from 9.85335e-06 to 9.85437e-06
Heightened Def Con from 9.85492e-06 to 9.85593e-06
Heightened Def Con from 9.85597e-06 to 9.85697e-06
Heightened Def Con from 9.85697e-06 to 9.85997e-06
Heightened Def Con from 9.86197e-06 to 9.8631e-06
Heightened Def Con from 9.8631e-06 to 9.8661e-06
Heightened Def Con from 9.86616e-06 to 9.86728e-06
Heightened Def Con from 9.86728e-06 to 9.86828e-06
Heightened Def Con from 9.86828e-06 to 9.86941e-06
Heightened Def Con from 9.86967e-06 to 9.87069e-06
Heightened Def Con from 9.87069e-06 to 9.87071e-06
Heightened Def Con from 9.87076e-06 to 9.87076e-06
Heightened Def Con from 9.87076e-06 to 9.87177e-06
Heightened Def Con from 9.87177e-06 to 9.87202e-06
Heightened Def Con from 9.8723e-06 to 9.87232e-06
Heightened Def Con from 9.87232e-06 to 9.87235e-06
Heightened Def Con from 9.87236e-06 to 9.87261e-06
Heightened Def Con from 9.87309e-06 to 9.87521e-06
Heightened Def Con from 9.87525e-06 to 9.87737e-06
Heightened Def Con from 9.87825e-06 to 9.87828e-06
Heightened Def Con from 9.87828e-06 to 9.87828e-06
Heightened Def Con from 9.87829e-06 to 9.87931e-06
Heightened Def Con from 9.87941e-06 to 9.87966e-06
Heightened Def Con from 9.8802e-06 to 9.88133e-06
Heightened Def Con from 9.88198e-06 to 9.88223e-06
Heightened Def Con from 9.8832e-06 to 9.8862e-06
Heightened Def Con from 9.88647e-06 to 9.88661e-06
Heightened Def Con from 9.88662e-06 to 9.88663e-06
Heightened Def Con from 9.88663e-06 to 9.88664e-06
Heightened Def Con from 9.88665e-06 to 9.88665e-06
Heightened Def Con from 9.88665e-06 to 9.88678e-06
Heightened Def Con from 9.88678e-06 to 9.8878e-06
Heightened Def Con from 9.8878e-06 to 9.88783e-06
Heightened Def Con from 9.88785e-06 to 9.88798e-06
Heightened Def Con from 9.88818e-06 to 9.88819e-06
Heightened Def Con from 9.88819e-06 to 9.88819e-06
Heightened Def Con from 9.88819e-06 to 9.89021e-06
Heightened Def Con from 9.89025e-06 to 9.89028e-06
Heightened Def Con from 9.89037e-06 to 9.89237e-06
Heightened Def Con from 9.89237e-06 to 9.89237e-06
Heightened Def Con from 9.89237e-06 to 9.89262e-06
Heightened Def Con from 9.89271e-06 to 9.89272e-06
Heightened Def Con from 9.89273e-06 to 9.89287e-06
Heightened Def Con from 9.89287e-06 to 9.89312e-06
Heightened Def Con from 9.89313e-06 to 9.89327e-06
Heightened Def Con from 9.89331e-06 to 9.89331e-06
Heightened Def Con from 9.89331e-06 to 9.89432e-06
Heightened Def Con from 9.89433e-06 to 9.89433e-06
Heightened Def Con from 9.89433e-06 to 9.89458e-06
Heightened Def Con from 9.89462e-06 to 9.89465e-06
Heightened Def Con from 9.89466e-06 to 9.89466e-06
Heightened Def Con from 9.89466e-06 to 9.89491e-06
Heightened Def Con from 9.89557e-06 to 9.89657e-06
Heightened Def Con from 9.89657e-06 to 9.89759e-06
Heightened Def Con from 9.89762e-06 to 9.89762e-06
Heightened Def Con from 9.89762e-06 to 9.89765e-06
Heightened Def Con from 9.89768e-06 to 9.8978e-06
Heightened Def Con from 9.8978e-06 to 9.89893e-06
Heightened Def Con from 9.8998e-06 to 9.89982e-06
Heightened Def Con from 9.89984e-06 to 9.89997e-06
Heightened Def Con from 9.89997e-06 to 9.89997e-06
Heightened Def Con from 9.89997e-06 to 9.90009e-06
Heightened Def Con from 9.90009e-06 to 9.90011e-06
Heightened Def Con from 9.90012e-06 to 9.90114e-06
Heightened Def Con from 9.90117e-06 to 9.90142e-06
Heightened Def Con from 9.90163e-06 to 9.90265e-06
Heightened Def Con from 9.90268e-06 to 9.90268e-06
Heightened Def Con from 9.90269e-06 to 9.90272e-06
Heightened Def Con from 9.90272e-06 to 9.90384e-06
Heightened Def Con from 9.90424e-06 to 9.90424e-06
Heightened Def Con from 9.90424e-06 to 9.90536e-06
Heightened Def Con from 9.90636e-06 to 9.90648e-06
Heightened Def Con from 9.90648e-06 to 9.90673e-06
Heightened Def Con from 9.90698e-06 to 9.90811e-06
Heightened Def Con from 9.90815e-06 to 9.90829e-06
Heightened Def Con from 9.90836e-06 to 9.90863e-06
Heightened Def Con from 9.90885e-06 to 9.91086e-06
Heightened Def Con from 9.9109e-06 to 9.91091e-06
Heightened Def Con from 9.91091e-06 to 9.91129e-06
Heightened Def Con from 9.91248e-06 to 9.91361e-06
Heightened Def Con from 9.91539e-06 to 9.91539e-06
Heightened Def Con from 9.9154e-06 to 9.91577e-06
Heightened Def Con from 9.91581e-06 to 9.91694e-06
Heightened Def Con from 9.9171e-06 to 9.9181e-06
Heightened Def Con from 9.9181e-06 to 9.91812e-06
Heightened Def Con from 9.91813e-06 to 9.92025e-06
Heightened Def Con from 9.92026e-06 to 9.92026e-06
Heightened Def Con from 9.92027e-06 to 9.92041e-06
Heightened Def Con from 9.92089e-06 to 9.92202e-06
Heightened Def Con from 9.92249e-06 to 9.92361e-06
Heightened Def Con from 9.92383e-06 to 9.92397e-06
Heightened Def Con from 9.92397e-06 to 9.92499e-06
Heightened Def Con from 9.925e-06 to 9.92525e-06
Heightened Def Con from 9.92527e-06 to 9.92529e-06
Heightened Def Con from 9.92535e-06 to 9.9256e-06
Heightened Def Con from 9.92739e-06 to 9.92852e-06
Heightened Def Con from 9.92852e-06 to 9.92855e-06
Heightened Def Con from 9.92858e-06 to 9.92883e-06
Heightened Def Con from 9.92896e-06 to 9.93096e-06
Heightened Def Con from 9.93096e-06 to 9.93098e-06
Heightened Def Con from 9.93098e-06 to 9.93112e-06
Heightened Def Con from 9.93121e-06 to 9.93123e-06
Heightened Def Con from 9.93123e-06 to 9.93123e-06
Heightened Def Con from 9.93123e-06 to 9.93148e-06
Heightened Def Con from 9.93181e-06 to 9.93185e-06
Heightened Def Con from 9.93186e-06 to 9.93286e-06
Heightened Def Con from 9.93286e-06 to 9.93289e-06
Heightened Def Con from 9.93294e-06 to 9.93294e-06
Heightened Def Con from 9.93295e-06 to 9.93296e-06
Heightened Def Con from 9.93297e-06 to 9.933e-06
Heightened Def Con from 9.93312e-06 to 9.93337e-06
Heightened Def Con from 9.93362e-06 to 9.93362e-06
Heightened Def Con from 9.93362e-06 to 9.93364e-06
Heightened Def Con from 9.93364e-06 to 9.93366e-06
Heightened Def Con from 9.93366e-06 to 9.93366e-06
Heightened Def Con from 9.93366e-06 to 9.93567e-06
Heightened Def Con from 9.93572e-06 to 9.93573e-06
Heightened Def Con from 9.93573e-06 to 9.93598e-06
Heightened Def Con from 9.93624e-06 to 9.93649e-06
Heightened Def Con from 9.93706e-06 to 9.93708e-06
Heightened Def Con from 9.93708e-06 to 9.9371e-06
Heightened Def Con from 9.93713e-06 to 9.93716e-06
Heightened Def Con from 9.93718e-06 to 9.93743e-06
Heightened Def Con from 9.93796e-06 to 9.93796e-06
Heightened Def Con from 9.93796e-06 to 9.93798e-06
Heightened Def Con from 9.93799e-06 to 9.93801e-06
Heightened Def Con from 9.93801e-06 to 9.93813e-06
Heightened Def Con from 9.93813e-06 to 9.93838e-06
Heightened Def Con from 9.93886e-06 to 9.93911e-06
Heightened Def Con from 9.93914e-06 to 9.93915e-06
Heightened Def Con from 9.93915e-06 to 9.93916e-06
Heightened Def Con from 9.93916e-06 to 9.94016e-06
Heightened Def Con from 9.94016e-06 to 9.94018e-06
Heightened Def Con from 9.94018e-06 to 9.94018e-06
Heightened Def Con from 9.94018e-06 to 9.94018e-06
Heightened Def Con from 9.94018e-06 to 9.94031e-06
Heightened Def Con from 9.94031e-06 to 9.94031e-06
Heightened Def Con from 9.94031e-06 to 9.94031e-06
Heightened Def Con from 9.94031e-06 to 9.94044e-06
Heightened Def Con from 9.94044e-06 to 9.94044e-06
Heightened Def Con from 9.94044e-06 to 9.94044e-06
Heightened Def Con from 9.94044e-06 to 9.94046e-06
Heightened Def Con from 9.94046e-06 to 9.9406e-06
Heightened Def Con from 9.9406e-06 to 9.94062e-06
Heightened Def Con from 9.94062e-06 to 9.94074e-06
Heightened Def Con from 9.94075e-06 to 9.94087e-06
Heightened Def Con from 9.94087e-06 to 9.94112e-06
Heightened Def Con from 9.94123e-06 to 9.94223e-06
Heightened Def Con from 9.94223e-06 to 9.94225e-06
Heightened Def Con from 9.94225e-06 to 9.94225e-06
Heightened Def Con from 9.94225e-06 to 9.94227e-06
Heightened Def Con from 9.94227e-06 to 9.94229e-06
Heightened Def Con from 9.94229e-06 to 9.9433e-06
Heightened Def Con from 9.94331e-06 to 9.94332e-06
Heightened Def Con from 9.94332e-06 to 9.94335e-06
Heightened Def Con from 9.94336e-06 to 9.94349e-06
Heightened Def Con from 9.94349e-06 to 9.94449e-06
Heightened Def Con from 9.94449e-06 to 9.94452e-06
Heightened Def Con from 9.94453e-06 to 9.94467e-06
Heightened Def Con from 9.94471e-06 to 9.94474e-06
Heightened Def Con from 9.94522e-06 to 9.94522e-06
Heightened Def Con from 9.94522e-06 to 9.94525e-06
Heightened Def Con from 9.94525e-06 to 9.94627e-06
Heightened Def Con from 9.9463e-06 to 9.94644e-06
Heightened Def Con from 9.94655e-06 to 9.94655e-06
Heightened Def Con from 9.94657e-06 to 9.94769e-06
Heightened Def Con from 9.94769e-06 to 9.94782e-06
Heightened Def Con from 9.94782e-06 to 9.94795e-06
Heightened Def Con from 9.94795e-06 to 9.94795e-06
Heightened Def Con from 9.94796e-06 to 9.94821e-06
Heightened Def Con from 9.94846e-06 to 9.94846e-06
Heightened Def Con from 9.94846e-06 to 9.94846e-06
Heightened Def Con from 9.94846e-06 to 9.94849e-06
Heightened Def Con from 9.94872e-06 to 9.94872e-06
Heightened Def Con from 9.94872e-06 to 9.94972e-06
Heightened Def Con from 9.94972e-06 to 9.95172e-06
Heightened Def Con from 9.95358e-06 to 9.9536e-06
Heightened Def Con from 9.9536e-06 to 9.95363e-06
Heightened Def Con from 9.95373e-06 to 9.95387e-06
Heightened Def Con from 9.95387e-06 to 9.95587e-06
Heightened Def Con from 9.95635e-06 to 9.95735e-06
Heightened Def Con from 9.95737e-06 to 9.9574e-06
Heightened Def Con from 9.95771e-06 to 9.95772e-06
Heightened Def Con from 9.95772e-06 to 9.95784e-06
Heightened Def Con from 9.95786e-06 to 9.95811e-06
Heightened Def Con from 9.95838e-06 to 9.95863e-06
Heightened Def Con from 9.95894e-06 to 9.96006e-06
Heightened Def Con from 9.9605e-06 to 9.96163e-06
Heightened Def Con from 9.96172e-06 to 9.96185e-06
Heightened Def Con from 9.96185e-06 to 9.96185e-06
Heightened Def Con from 9.96185e-06 to 9.96189e-06
Heightened Def Con from 9.96189e-06 to 9.96189e-06
Heightened Def Con from 9.96189e-06 to 9.96191e-06
Heightened Def Con from 9.96191e-06 to 9.96216e-06
Heightened Def Con from 9.96225e-06 to 9.96325e-06
Heightened Def Con from 9.96325e-06 to 9.96325e-06
Heightened Def Con from 9.96325e-06 to 9.9635e-06
Heightened Def Con from 9.96355e-06 to 9.96355e-06
Heightened Def Con from 9.96355e-06 to 9.96356e-06
Heightened Def Con from 9.96356e-06 to 9.96368e-06
[...]
Heightened Def Con from 1.09616e-05 to 1.09618e-05
Heightened Def Con from 1.09618e-05 to 1.09618e-05
Heightened Def Con from 1.09618e-05 to 1.09618e-05
Heightened Def Con from 1.09618e-05 to 1.09618e-05
Heightened Def Con from 1.09618e-05 to 1.09618e-05
Heightened Def Con from 1.09618e-05 to 1.09618e-05
Heightened Def Con from 1.09618e-05 to 1.09619e-05
Heightened Def Con from 1.0962e-05 to 1.0962e-05
Heightened Def Con from 1.0962e-05 to 1.0962e-05
Heightened Def Con from 1.0962e-05 to 1.09621e-05
Heightened Def Con from 1.09621e-05 to 1.09641e-05
Heightened Def Con from 1.09652e-05 to 1.09652e-05
Heightened Def Con from 1.09652e-05 to 1.09652e-05
Heightened Def Con from 1.09652e-05 to 1.09652e-05
Heightened Def Con from 1.09652e-05 to 1.09662e-05
Heightened Def Con from 1.09662e-05 to 1.09663e-05
Heightened Def Con from 1.09663e-05 to 1.09663e-05
Heightened Def Con from 1.09663e-05 to 1.09663e-05
Heightened Def Con from 1.09663e-05 to 1.09674e-05
Heightened Def Con from 1.09674e-05 to 1.09675e-05
Heightened Def Con from 1.09677e-05 to 1.09677e-05
Heightened Def Con from 1.09677e-05 to 1.09687e-05
Heightened Def Con from 1.09688e-05 to 1.09688e-05
Heightened Def Con from 1.09688e-05 to 1.09688e-05
Heightened Def Con from 1.09688e-05 to 1.09698e-05
Heightened Def Con from 1.09699e-05 to 1.09699e-05
Heightened Def Con from 1.09699e-05 to 1.097e-05
Heightened Def Con from 1.097e-05 to 1.097e-05
Heightened Def Con from 1.097e-05 to 1.097e-05
Heightened Def Con from 1.097e-05 to 1.09701e-05
Heightened Def Con from 1.09702e-05 to 1.09702e-05
Heightened Def Con from 1.09702e-05 to 1.09703e-05
Heightened Def Con from 1.09703e-05 to 1.09703e-05
Heightened Def Con from 1.09703e-05 to 1.09703e-05
Heightened Def Con from 1.09703e-05 to 1.09706e-05
Heightened Def Con from 1.09707e-05 to 1.09708e-05
Heightened Def Con from 1.09708e-05 to 1.09719e-05
Heightened Def Con from 1.09719e-05 to 1.09719e-05
Heightened Def Con from 1.09719e-05 to 1.09719e-05
Heightened Def Con from 1.09719e-05 to 1.09719e-05
Heightened Def Con from 1.09719e-05 to 1.09719e-05
Heightened Def Con from 1.09719e-05 to 1.09719e-05
Heightened Def Con from 1.09719e-05 to 1.09719e-05
Heightened Def Con from 1.09719e-05 to 1.09721e-05
Heightened Def Con from 1.09721e-05 to 1.09721e-05
Heightened Def Con from 1.09721e-05 to 1.09721e-05
Heightened Def Con from 1.09721e-05 to 1.09722e-05
Heightened Def Con from 1.09722e-05 to 1.09732e-05
Heightened Def Con from 1.09732e-05 to 1.09742e-05
Heightened Def Con from 1.09742e-05 to 1.09742e-05
Heightened Def Con from 1.09742e-05 to 1.09744e-05
Heightened Def Con from 1.09744e-05 to 1.09744e-05
Heightened Def Con from 1.09745e-05 to 1.09745e-05
Heightened Def Con from 1.09745e-05 to 1.09745e-05
Heightened Def Con from 1.09745e-05 to 1.09745e-05
Heightened Def Con from 1.09745e-05 to 1.09747e-05
Heightened Def Con from 1.09747e-05 to 1.09747e-05
Heightened Def Con from 1.09747e-05 to 1.09757e-05
Heightened Def Con from 1.09757e-05 to 1.09757e-05
Heightened Def Con from 1.09757e-05 to 1.09757e-05
Heightened Def Con from 1.09757e-05 to 1.09757e-05
Heightened Def Con from 1.09759e-05 to 1.0977e-05
Heightened Def Con from 1.09771e-05 to 1.09771e-05
Heightened Def Con from 1.09771e-05 to 1.09771e-05
Heightened Def Con from 1.09771e-05 to 1.09771e-05
Heightened Def Con from 1.09771e-05 to 1.09771e-05
Heightened Def Con from 1.09771e-05 to 1.09771e-05
Heightened Def Con from 1.09771e-05 to 1.09771e-05
Heightened Def Con from 1.09772e-05 to 1.09773e-05
Heightened Def Con from 1.09773e-05 to 1.09773e-05
Heightened Def Con from 1.09773e-05 to 1.09773e-05
Heightened Def Con from 1.09773e-05 to 1.09773e-05
Heightened Def Con from 1.09774e-05 to 1.09774e-05
Heightened Def Con from 1.09774e-05 to 1.09776e-05
Heightened Def Con from 1.09781e-05 to 1.09781e-05
Heightened Def Con from 1.09781e-05 to 1.09781e-05
Heightened Def Con from 1.09781e-05 to 1.09782e-05
Heightened Def Con from 1.09782e-05 to 1.09783e-05
Heightened Def Con from 1.09783e-05 to 1.09783e-05
Heightened Def Con from 1.09783e-05 to 1.09785e-05
Heightened Def Con from 1.09785e-05 to 1.09785e-05
Heightened Def Con from 1.09785e-05 +to 1.09785e-05
Heightened Def Con from 1.09786e-05 to 1.09786e-05
Heightened Def Con from 1.09786e-05 to 1.09787e-05
Heightened Def Con from 1.09787e-05 to 1.09789e-05
Heightened Def Con from 1.09789e-05 to 1.09789e-05
Heightened Def Con from 1.09789e-05 to 1.09789e-05
Heightened Def Con from 1.09789e-05 to 1.09789e-05
Heightened Def Con from 1.09789e-05 to 1.09789e-05
Heightened Def Con from 1.09789e-05 to 1.09809e-05
Heightened Def Con from 1.09812e-05 to 1.09813e-05
Heightened Def Con from 1.09813e-05 to 1.09813e-05
Heightened Def Con from 1.09813e-05 to 1.09813e-05
Heightened Def Con from 1.09813e-05 to 1.09813e-05
Heightened Def Con from 1.09813e-05 to 1.09814e-05
Heightened Def Con from 1.09814e-05 to 1.09824e-05
Heightened Def Con from 1.09824e-05 to 1.09824e-05
Heightened Def Con from 1.09824e-05 to 1.09825e-05
Heightened Def Con from 1.09825e-05 to 1.09825e-05
Heightened Def Con from 1.09825e-05 to 1.09825e-05
Heightened Def Con from 1.09825e-05 to 1.09825e-05
Heightened Def Con from 1.09825e-05 to 1.09825e-05
Heightened Def Con from 1.09825e-05 to 1.09825e-05
Heightened Def Con from 1.09825e-05 to 1.09826e-05
Heightened Def Con from 1.09826e-05 to 1.09826e-05
Heightened Def Con from 1.09826e-05 to 1.09828e-05
Heightened Def Con from 1.09837e-05 to 1.09837e-05
Heightened Def Con from 1.09837e-05 to 1.09838e-05
Heightened Def Con from 1.09838e-05 to 1.09848e-05
Heightened Def Con from 1.09848e-05 to 1.09848e-05
Heightened Def Con from 1.09848e-05 to 1.09848e-05
Heightened Def Con from 1.09848e-05 to 1.09848e-05
Heightened Def Con from 1.09848e-05 to 1.09848e-05
Heightened Def Con from 1.09848e-05 to 1.09849e-05
Heightened Def Con from 1.09849e-05 to 1.09849e-05
Heightened Def Con from 1.09849e-05 to 1.09849e-05
Heightened Def Con from 1.09849e-05 to 1.09849e-05
Heightened Def Con from 1.09849e-05 to 1.09859e-05
Heightened Def Con from 1.09859e-05 to 1.09859e-05
Heightened Def Con from 1.09859e-05 to 1.09861e-05
Heightened Def Con from 1.09861e-05 to 1.09861e-05
Heightened Def Con from 1.09861e-05 to 1.09861e-05
Heightened Def Con from 1.09861e-05 to 1.09862e-05
Heightened Def Con from 1.09862e-05 to 1.09862e-05
Heightened Def Con from 1.09862e-05 to 1.09863e-05
Heightened Def Con from 1.09863e-05 to 1.09863e-05
Heightened Def Con from 1.09863e-05 to 1.09863e-05
Heightened Def Con from 1.09863e-05 to 1.09863e-05
Heightened Def Con from 1.09863e-05 to 1.09863e-05
Heightened Def Con from 1.09863e-05 to 1.09863e-05
Heightened Def Con from 1.09865e-05 to 1.09865e-05
Heightened Def Con from 1.09865e-05 to 1.09865e-05
Heightened Def Con from 1.09865e-05 to 1.09875e-05
Heightened Def Con from 1.09875e-05 to 1.09876e-05
Heightened Def Con from 1.09876e-05 to 1.09877e-05
Heightened Def Con from 1.0988e-05 to 1.09881e-05
Heightened Def Con from 1.09881e-05 to 1.09881e-05
Heightened Def Con from 1.09881e-05 to 1.09881e-05
Heightened Def Con from 1.09881e-05 to 1.09881e-05
Heightened Def Con from 1.09881e-05 to 1.09881e-05
Heightened Def Con from 1.09881e-05 to 1.09881e-05
Heightened Def Con from 1.09881e-05 to 1.09882e-05
Heightened Def Con from 1.09882e-05 to 1.09883e-05
Heightened Def Con from 1.09885e-05 to 1.09885e-05
Heightened Def Con from 1.09885e-05 to 1.09885e-05
Heightened Def Con from 1.09885e-05 to 1.09885e-05
Heightened Def Con from 1.09885e-05 to 1.09885e-05
Heightened Def Con from 1.09885e-05 to 1.09885e-05
Heightened Def Con from 1.09885e-05 to 1.09885e-05
Heightened Def Con from 1.09885e-05 to 1.09885e-05
Heightened Def Con from 1.09885e-05 to 1.09887e-05
Heightened Def Con from 1.09887e-05 to 1.09887e-05
Heightened Def Con from 1.09887e-05 to 1.09887e-05
Heightened Def Con from 1.09887e-05 to 1.09887e-05
Heightened Def Con from 1.09887e-05 to 1.09887e-05
Heightened Def Con from 1.09887e-05 to 1.09888e-05
Heightened Def Con from 1.09889e-05 to 1.09889e-05
Heightened Def Con from 1.09889e-05 to 1.09889e-05
Heightened Def Con from 1.09889e-05 to 1.09889e-05
Heightened Def Con from 1.09889e-05 to 1.0989e-05
Heightened Def Con from 1.0989e-05 to 1.0989e-05
Heightened Def Con from 1.0989e-05 to 1.09891e-05
Heightened Def Con from 1.09891e-05 to 1.09891e-05
Heightened Def Con from 1.09891e-05 to 1.09891e-05
Heightened Def Con from 1.09891e-05 to 1.09891e-05
Heightened Def Con from 1.09891e-05 to 1.09891e-05
Heightened Def Con from 1.09891e-05 to 1.09891e-05
Heightened Def Con from 1.09891e-05 to 1.09891e-05
Heightened Def Con from 1.09891e-05 to 1.09891e-05
Heightened Def Con from 1.09891e-05 to 1.09893e-05
Heightened Def Con from 1.09893e-05 to 1.09893e-05
Heightened Def Con from 1.09893e-05 to 1.09894e-05
Heightened Def Con from 1.09894e-05 to 1.09894e-05
Heightened Def Con from 1.09894e-05 to 1.09895e-05
Heightened Def Con from 1.09895e-05 to 1.09895e-05
Heightened Def Con from 1.09895e-05 to 1.09896e-05
Heightened Def Con from 1.09896e-05 to 1.09896e-05
Heightened Def Con from 1.09896e-05 +to 1.09897e-05
Heightened Def Con from 1.09897e-05 to 1.09897e-05
Heightened Def Con from 1.09897e-05 to 1.09897e-05
Heightened Def Con from 1.09897e-05 to 1.09897e-05
Heightened Def Con from 1.09897e-05 to 1.09899e-05
Heightened Def Con from 1.09899e-05 to 1.09899e-05
Heightened Def Con from 1.09899e-05 to 1.09899e-05
Heightened Def Con from 1.09899e-05 to 1.09909e-05
Heightened Def Con from 1.09909e-05 to 1.09909e-05
Heightened Def Con from 1.09909e-05 to 1.09919e-05
Heightened Def Con from 1.09919e-05 to 1.0992e-05
Heightened Def Con from 1.0992e-05 to 1.0992e-05
Heightened Def Con from 1.0992e-05 to 1.0993e-05
Heightened Def Con from 1.0993e-05 to 1.0994e-05
Heightened Def Con from 1.0994e-05 to 1.0994e-05
Heightened Def Con from 1.0994e-05 to 1.09941e-05
Heightened Def Con from 1.09941e-05 to 1.09941e-05
Heightened Def Con from 1.09941e-05 to 1.09941e-05
Heightened Def Con from 1.09941e-05 to 1.09951e-05
Heightened Def Con from 1.09951e-05 to 1.09952e-05
Heightened Def Con from 1.09952e-05 to 1.09953e-05
Heightened Def Con from 1.09953e-05 to 1.09954e-05
Heightened Def Con from 1.09955e-05 to 1.09955e-05
Heightened Def Con from 1.09955e-05 to 1.09956e-05
Heightened Def Con from 1.09956e-05 to 1.09957e-05
Heightened Def Con from 1.09957e-05 to 1.09957e-05
Heightened Def Con from 1.09957e-05 to 1.09967e-05
Heightened Def Con from 1.09967e-05 to 1.09967e-05
Heightened Def Con from 1.09967e-05 to 1.09969e-05
Heightened Def Con from 1.09969e-05 to 1.09979e-05
Heightened Def Con from 1.09979e-05 to 1.09989e-05
Heightened Def Con from 1.09989e-05 to 1.09989e-05
Heightened Def Con from 1.09989e-05 to 1.0999e-05
Heightened Def Con from 1.09993e-05 to 1.09993e-05
Heightened Def Con from 1.09993e-05 to 1.09993e-05
Heightened Def Con from 1.09993e-05 to 1.09994e-05
Heightened Def Con from 1.09994e-05 to 1.09995e-05
Heightened Def Con from 1.09995e-05 to 1.09995e-05
Heightened Def Con from 1.09998e-05 to 1.09998e-05
Heightened Def Con from 1.09998e-05 to 1.10009e-05
Heightened Def Con from 1.10009e-05 to 1.10009e-05
Heightened Def Con from 1.10009e-05 to 1.1001e-05
Heightened Def Con from 1.1001e-05 to 1.1001e-05
Heightened Def Con from 1.10011e-05 to 1.10012e-05
Heightened Def Con from 1.10012e-05 to 1.10012e-05
Heightened Def Con from 1.10012e-05 to 1.10012e-05
Heightened Def Con from 1.10012e-05 to 1.10012e-05
Heightened Def Con from 1.10012e-05 to 1.10012e-05
Heightened Def Con from 1.10012e-05 to 1.10012e-05
Heightened Def Con from 1.10012e-05 to 1.10012e-05
Heightened Def Con from 1.10012e-05 to 1.10012e-05
Heightened Def Con from 1.10012e-05 to 1.10012e-05
Heightened Def Con from 1.10013e-05 to 1.10013e-05
Heightened Def Con from 1.10013e-05 to 1.10013e-05
Heightened Def Con from 1.10013e-05 to 1.10013e-05
Heightened Def Con from 1.10013e-05 to 1.10013e-05
Heightened Def Con from 1.10013e-05 to 1.10013e-05
Heightened Def Con from 1.10013e-05 to 1.10013e-05
Heightened Def Con from 1.10013e-05 to 1.10013e-05
Heightened Def Con from 1.10013e-05 to 1.10013e-05
Heightened Def Con from 1.10013e-05 to 1.10015e-05
Heightened Def Con from 1.10015e-05 to 1.10015e-05
Heightened Def Con from 1.10015e-05 to 1.10016e-05
Heightened Def Con from 1.10016e-05 to 1.10026e-05
Heightened Def Con from 1.10026e-05 to 1.10036e-05
Heightened Def Con from 1.10036e-05 to 1.10036e-05
Heightened Def Con from 1.10036e-05 to 1.10036e-05
Heightened Def Con from 1.10036e-05 to 1.10036e-05
Heightened Def Con from 1.10036e-05 to 1.10036e-05
Heightened Def Con from 1.10036e-05 to 1.10037e-05
Heightened Def Con from 1.10038e-05 to 1.10038e-05
Heightened Def Con from 1.10038e-05 to 1.10038e-05
Heightened Def Con from 1.10038e-05 to 1.10038e-05
Heightened Def Con from 1.10038e-05 to 1.10038e-05
Heightened Def Con from 1.10038e-05 to 1.10038e-05
Heightened Def Con from 1.10038e-05 to 1.10038e-05
Heightened Def Con from 1.10038e-05 to 1.10039e-05
Heightened Def Con from 1.1004e-05 to 1.1004e-05
Heightened Def Con from 1.10041e-05 to 1.10041e-05
Heightened Def Con from 1.10042e-05 to 1.10042e-05
Heightened Def Con from 1.10042e-05 to 1.10042e-05
Heightened Def Con from 1.10044e-05 to 1.10044e-05
Heightened Def Con from 1.10044e-05 to 1.10044e-05
Heightened Def Con from 1.10044e-05 to 1.10044e-05
Heightened Def Con from 1.10044e-05 to 1.10044e-05
Heightened Def Con from 1.10045e-05 to 1.10045e-05
Heightened Def Con from 1.10045e-05 to 1.10045e-05
Heightened Def Con from 1.10045e-05 to 1.10045e-05
Heightened Def Con from 1.10045e-05 to 1.10055e-05
Heightened Def Con from 1.10055e-05 to 1.10056e-05
Heightened Def Con from 1.10056e-05 to 1.10056e-05
Heightened Def Con from 1.10056e-05 to 1.10066e-05
Heightened Def Con from 1.10066e-05 to 1.10067e-05
Heightened Def Con from 1.10067e-05 to 1.10077e-05
Heightened Def Con from 1.10077e-05 to 1.10077e-05
Heightened Def Con from 1.10077e-05 to 1.10087e-05
Heightened Def Con from 1.10087e-05 to 1.10087e-05
Heightened Def Con from 1.10087e-05 to 1.10088e-05
Heightened Def Con from 1.10088e-05 to 1.10088e-05
Heightened Def Con from 1.10088e-05 to 1.10088e-05
Heightened Def Con from 1.10088e-05 to 1.10088e-05
Heightened Def Con from 1.10088e-05 to 1.10088e-05
Heightened Def Con from 1.10088e-05 to 1.10088e-05
Heightened Def Con from 1.10088e-05 to 1.10088e-05
Heightened Def Con from 1.10088e-05 to 1.10088e-05
Heightened Def Con from 1.10088e-05 to 1.10088e-05
Heightened Def Con from 1.10088e-05 to 1.10089e-05
Heightened Def Con from 1.10089e-05 to 1.10089e-05
Heightened Def Con from 1.1009e-05 to 1.1009e-05
Heightened Def Con from 1.1009e-05 to 1.1009e-05
Heightened Def Con from 1.1009e-05 to 1.1009e-05
Heightened Def Con from 1.1009e-05 to 1.10092e-05
Heightened Def Con from 1.10092e-05 to 1.10092e-05
Heightened Def Con from 1.10092e-05 to 1.10093e-05
Heightened Def Con from 1.10093e-05 to 1.10093e-05
Heightened Def Con from 1.10093e-05 to 1.10093e-05
Heightened Def Con from 1.10093e-05 to 1.10094e-05
Heightened Def Con from 1.10094e-05 to 1.10094e-05
Heightened Def Con from 1.10094e-05 to 1.10094e-05
Heightened Def Con from 1.10094e-05 to 1.10094e-05
Heightened Def Con from 1.10094e-05 to 1.10094e-05
Heightened Def Con from 1.10094e-05 to 1.10094e-05
Heightened Def Con from 1.10094e-05 to 1.10094e-05
Heightened Def Con from 1.10094e-05 to 1.10095e-05
Heightened Def Con from 1.10095e-05 to 1.10125e-05
Heightened Def Con from 1.10125e-05 to 1.10125e-05
Heightened Def Con from 1.10125e-05 to 1.10126e-05
Heightened Def Con from 1.10126e-05 to 1.10126e-05
Heightened Def Con from 1.10126e-05 to 1.10126e-05
Heightened Def Con from 1.10126e-05 to 1.10126e-05
Heightened Def Con from 1.10126e-05 to 1.10126e-05
Heightened Def Con from 1.10126e-05 to 1.10127e-05
Heightened Def Con from 1.10127e-05 to 1.10127e-05
Heightened Def Con from 1.10127e-05 to 1.10127e-05
Heightened Def Con from 1.10127e-05 to 1.10127e-05
Heightened Def Con from 1.10127e-05 to 1.10127e-05
Heightened Def Con from 1.10127e-05 to 1.10127e-05
Heightened Def Con from 1.10127e-05 to 1.10127e-05
Heightened Def Con from 1.10127e-05 to 1.10127e-05
Heightened Def Con from 1.10127e-05 to 1.10127e-05
Heightened Def Con from 1.10127e-05 to 1.10129e-05
Heightened Def Con from 1.10129e-05 to 1.10129e-05
Heightened Def Con from 1.10129e-05 to 1.10129e-05
Heightened Def Con from 1.10131e-05 to 1.10131e-05
Heightened Def Con from 1.10131e-05 to 1.10131e-05
Heightened Def Con from 1.10132e-05 to 1.10132e-05
Heightened Def Con from 1.10132e-05 to 1.10132e-05
Heightened Def Con from 1.10132e-05 to 1.10132e-05
Heightened Def Con from 1.10132e-05 to 1.10133e-05
Heightened Def Con from 1.10133e-05 to 1.10133e-05
Heightened Def Con from 1.10133e-05 to 1.10134e-05
Heightened Def Con from 1.10136e-05 to 1.10136e-05
Heightened Def Con from 1.10136e-05 to 1.10136e-05
Heightened Def Con from 1.10136e-05 to 1.10136e-05
Heightened Def Con from 1.10136e-05 to 1.10136e-05
Heightened Def Con from 1.10136e-05 to 1.10136e-05
Heightened Def Con from 1.10136e-05 to 1.10136e-05
Heightened Def Con from 1.10136e-05 to 1.10137e-05
Heightened Def Con from 1.10138e-05 to 1.10138e-05
Heightened Def Con from 1.10138e-05 to 1.10138e-05
Heightened Def Con from 1.10138e-05 to 1.10138e-05
Heightened Def Con from 1.10138e-05 to 1.10138e-05
Heightened Def Con from 1.10138e-05 to 1.10138e-05
Heightened Def Con from 1.10138e-05 to 1.10138e-05
Heightened Def Con from 1.10138e-05 to 1.10138e-05
Heightened Def Con from 1.10138e-05 to 1.10138e-05
Heightened Def Con from 1.10138e-05 to 1.10138e-05
Heightened Def Con from 1.10138e-05 to 1.10138e-05
Heightened Def Con from 1.10138e-05 to 1.10138e-05
Heightened Def Con from 1.10138e-05 to 1.10149e-05
Heightened Def Con from 1.10149e-05 to 1.10149e-05
Heightened Def Con from 1.10149e-05 to 1.10149e-05
Heightened Def Con from 1.10149e-05 to 1.10149e-05
Heightened Def Con from 1.10149e-05 to 1.10149e-05
Heightened Def Con from 1.10149e-05 to 1.10149e-05
Heightened Def Con from 1.10149e-05 to 1.10149e-05
Heightened Def Con from 1.10149e-05 to 1.10159e-05
Heightened Def Con from 1.10159e-05 to 1.10159e-05
Heightened Def Con from 1.10159e-05 to 1.10159e-05
Heightened Def Con from 1.10159e-05 to 1.10159e-05
Heightened Def Con from 1.10159e-05 to 1.1016e-05
Heightened Def Con from 1.1016e-05 to 1.1016e-05
Heightened Def Con from 1.1016e-05 to 1.10161e-05
Heightened Def Con from 1.10161e-05 to 1.10171e-05
Heightened Def Con from 1.10171e-05 to 1.10171e-05
Heightened Def Con from 1.10172e-05 to 1.10172e-05
Heightened Def Con from 1.10172e-05 to 1.10172e-05
Heightened Def Con from 1.10172e-05 to 1.10172e-05
Heightened Def Con from 1.10172e-05 to 1.10182e-05
Heightened Def Con from 1.10182e-05 to 1.10182e-05
Heightened Def Con from 1.10182e-05 to 1.10182e-05
Heightened Def Con from 1.10182e-05 to 1.10182e-05
Heightened Def Con from 1.10182e-05 to 1.10182e-05
Heightened Def Con from 1.10182e-05 to 1.10182e-05
Heightened Def Con from 1.10182e-05 to 1.10192e-05
Heightened Def Con from 1.10192e-05 to 1.10192e-05
Heightened Def Con from 1.10192e-05 to 1.10192e-05
Heightened Def Con from 1.10193e-05 to 1.10193e-05
Heightened Def Con from 1.10193e-05 to 1.10193e-05
Heightened Def Con from 1.10193e-05 to 1.10193e-05
Heightened Def Con from 1.10193e-05 to 1.10193e-05
Heightened Def Con from 1.10193e-05 to 1.10193e-05
Heightened Def Con from 1.10193e-05 to 1.10193e-05
Heightened Def Con from 1.10193e-05 to 1.10203e-05
Heightened Def Con from 1.10203e-05 to 1.10203e-05
Heightened Def Con from 1.10203e-05 to 1.10203e-05
Heightened Def Con from 1.10203e-05 to 1.10203e-05
Heightened Def Con from 1.10203e-05 to 1.10203e-05

Date: Fri Feb 23 15:22:16 2024
Total elapsed time: 102.828 seconds.

tnom = 27
temp = 27
method = modified trap
totiter = 1491596
traniter = 1491570
tranpoints = 207868
accept = 130553
rejected = 80485
matrix size = 207
fillins = 137
solver = Normal
Avg thread counts: 4.0/2.0/2.0/1.0
Matrix Compiler1: 14.11 KB object code size  8.0/5.5/[1.9]
Matrix Compiler2: 16.61 KB object code size  4.6/4.8/[2.9]

