Circuit: * C:\C1 Repos\Technion_Project_A\LTSPICE\Simulations\Flyback V6.asc

Instance "m:u3:_gd_template:_lo_stage2:_lo_nmos": Length shorter than recommended for a level 1 MOSFET.
Instance "m:u3:_gd_template:_lo_stage2:_lo_pmos": Length shorter than recommended for a level 1 MOSFET.
Instance "m:u3:_gd_template:_lo_stage1:_lo_nmos": Length shorter than recommended for a level 1 MOSFET.
Instance "m:u3:_gd_template:_lo_stage1:_lo_pmos": Length shorter than recommended for a level 1 MOSFET.
Direct Newton iteration for .op point succeeded.
Heightened Def Con from 8.92161e-008 to 8.98411e-008
Heightened Def Con from 3.16393e-007 to 3.17018e-007
Heightened Def Con from 3.55941e-007 to 3.57816e-007
Heightened Def Con from 1.31889e-006 to 1.31952e-006
Heightened Def Con from 2.08745e-006 to 2.08808e-006
Heightened Def Con from 2.3169e-006 to 2.31752e-006
Heightened Def Con from 3.26206e-006 to 3.26268e-006
Heightened Def Con from 3.35066e-006 to 3.35254e-006
Heightened Def Con from 4.25892e-006 to 4.25955e-006
Heightened Def Con from 5.35199e-006 to 5.35387e-006
Heightened Def Con from 6.26412e-006 to 6.26475e-006
Heightened Def Con from 7.08944e-006 to 7.09032e-006
Heightened Def Con from 7.31854e-006 to 7.31941e-006
Heightened Def Con from 9.31705e-006 to 9.31792e-006
Heightened Def Con from 9.35108e-006 to 9.35296e-006
Heightened Def Con from 1.30881e-005 to 1.3089e-005
Heightened Def Con from 1.32622e-005 to 1.32628e-005
Heightened Def Con from 1.40891e-005 to 1.409e-005
Heightened Def Con from 1.73526e-005 to 1.73544e-005
Heightened Def Con from 1.80871e-005 to 1.8088e-005
Heightened Def Con from 1.90876e-005 to 1.90885e-005
Heightened Def Con from 1.92602e-005 to 1.92608e-005
Heightened Def Con from 1.93179e-005 to 1.93188e-005
Heightened Def Con from 2.02631e-005 to 2.02637e-005
Heightened Def Con from 2.03179e-005 to 2.03188e-005
Heightened Def Con from 2.03513e-005 to 2.03531e-005
Heightened Def Con from 2.13513e-005 to 2.13531e-005
Heightened Def Con from 2.23535e-005 to 2.23554e-005
Heightened Def Con from 2.33164e-005 to 2.33173e-005
Heightened Def Con from 2.43529e-005 to 2.43548e-005
Heightened Def Con from 2.52608e-005 to 2.52614e-005
Heightened Def Con from 2.63162e-005 to 2.63171e-005
Heightened Def Con from 2.73523e-005 to 2.73542e-005
Heightened Def Con from 2.83164e-005 to 2.83224e-005
Heightened Def Con from 2.83524e-005 to 2.83542e-005
Heightened Def Con from 2.92616e-005 to 2.92622e-005
Heightened Def Con from 3.03172e-005 to 3.03181e-005
Heightened Def Con from 3.13537e-005 to 3.13617e-005
Heightened Def Con from 3.23179e-005 to 3.23188e-005
Heightened Def Con from 3.32578e-005 to 3.32584e-005
Heightened Def Con from 3.60871e-005 to 3.6088e-005
Heightened Def Con from 3.6261e-005 to 3.62617e-005
Heightened Def Con from 3.72611e-005 to 3.72617e-005
Heightened Def Con from 3.73163e-005 to 3.73172e-005
Heightened Def Con from 3.82625e-005 to 3.82631e-005
Heightened Def Con from 3.83173e-005 to 3.83182e-005
Heightened Def Con from 3.93549e-005 to 3.93568e-005
Heightened Def Con from 4.03538e-005 to 4.03557e-005
Heightened Def Con from 4.22616e-005 to 4.22622e-005
Heightened Def Con from 4.23173e-005 to 4.23181e-005
Heightened Def Con from 4.23518e-005 to 4.23537e-005
Heightened Def Con from 4.33186e-005 to 4.33195e-005
Heightened Def Con from 4.40885e-005 to 4.40894e-005
Heightened Def Con from 4.4318e-005 to 4.43188e-005
Heightened Def Con from 4.63178e-005 to 4.63187e-005
Heightened Def Con from 4.70876e-005 to 4.70885e-005
Heightened Def Con from 4.72622e-005 to 4.72628e-005
Heightened Def Con from 4.8318e-005 to 4.83189e-005
Heightened Def Con from 4.9318e-005 to 4.93189e-005
Heightened Def Con from 5.03183e-005 to 5.03192e-005
Heightened Def Con from 5.23164e-005 to 5.23173e-005
Heightened Def Con from 5.3318e-005 to 5.33189e-005
Heightened Def Con from 5.43179e-005 to 5.43187e-005
Heightened Def Con from 5.43508e-005 to 5.43527e-005
Heightened Def Con from 5.53183e-005 to 5.53192e-005
Heightened Def Con from 5.73166e-005 to 5.73175e-005
Heightened Def Con from 5.83175e-005 to 5.83184e-005
Heightened Def Con from 5.83505e-005 to 5.83524e-005
Heightened Def Con from 5.92634e-005 to 5.92744e-005
Heightened Def Con from 6.02634e-005 to 6.0264e-005
Heightened Def Con from 6.03179e-005 to 6.03188e-005
Heightened Def Con from 6.03554e-005 to 6.03573e-005
Heightened Def Con from 6.12638e-005 to 6.12645e-005
Heightened Def Con from 6.13183e-005 to 6.13191e-005
Heightened Def Con from 6.23548e-005 to 6.23567e-005
Heightened Def Con from 6.32623e-005 to 6.32629e-005
Heightened Def Con from 6.33516e-005 to 6.33535e-005
Heightened Def Con from 6.42631e-005 to 6.42637e-005
Heightened Def Con from 6.53183e-005 to 6.53192e-005
Heightened Def Con from 6.62643e-005 to 6.6265e-005
Heightened Def Con from 6.63184e-005 to 6.63193e-005
Heightened Def Con from 6.73492e-005 to 6.73511e-005
Heightened Def Con from 6.83184e-005 to 6.83193e-005
Heightened Def Con from 6.93185e-005 to 6.93194e-005
Heightened Def Con from 6.93511e-005 to 6.93529e-005
Heightened Def Con from 7.13523e-005 to 7.13542e-005
Heightened Def Con from 7.20882e-005 to 7.2089e-005
Heightened Def Con from 7.23521e-005 to 7.2354e-005
Heightened Def Con from 7.32634e-005 to 7.3264e-005
Heightened Def Con from 7.42636e-005 to 7.42643e-005
Heightened Def Con from 7.43529e-005 to 7.43548e-005
Heightened Def Con from 7.53182e-005 to 7.5319e-005
Heightened Def Con from 7.63179e-005 to 7.63188e-005
Heightened Def Con from 7.70882e-005 to 7.7089e-005
Heightened Def Con from 7.90882e-005 to 7.9089e-005
Heightened Def Con from 7.93537e-005 to 7.93556e-005
Heightened Def Con from 8.0262e-005 to 8.02626e-005
Heightened Def Con from 8.03498e-005 to 8.03517e-005
Heightened Def Con from 8.10872e-005 to 8.1088e-005
Heightened Def Con from 8.12615e-005 to 8.12621e-005
Heightened Def Con from 8.33164e-005 to 8.33173e-005
Heightened Def Con from 8.43174e-005 to 8.43182e-005
Heightened Def Con from 8.53501e-005 to 8.5352e-005
Heightened Def Con from 8.8318e-005 to 8.83189e-005
Heightened Def Con from 8.83535e-005 to 8.83554e-005
Heightened Def Con from 8.93188e-005 to 8.93248e-005
Heightened Def Con from 9.02622e-005 to 9.02628e-005
Heightened Def Con from 9.32634e-005 to 9.32641e-005
Heightened Def Con from 9.40895e-005 to 9.40903e-005
Heightened Def Con from 9.53162e-005 to 9.53171e-005
Heightened Def Con from 9.63182e-005 to 9.63191e-005
Heightened Def Con from 9.70882e-005 to 9.7089e-005
Heightened Def Con from 9.72616e-005 to 9.72622e-005
Heightened Def Con from 9.92628e-005 to 9.92634e-005
Heightened Def Con from 9.93528e-005 to 9.93546e-005
Heightened Def Con from 0.000100316 to 0.000100317
Heightened Def Con from 0.000105318 to 0.000105319
Heightened Def Con from 0.000105352 to 0.000105354
Heightened Def Con from 0.000106262 to 0.000106262
Heightened Def Con from 0.000108318 to 0.000108319
Heightened Def Con from 0.000109317 to 0.000109318
Heightened Def Con from 0.000110263 to 0.000110264
Heightened Def Con from 0.000110318 to 0.000110319
Heightened Def Con from 0.000110353 to 0.000110355
Heightened Def Con from 0.000111264 to 0.000111265
Heightened Def Con from 0.000111318 to 0.000111319
Heightened Def Con from 0.000113318 to 0.000113319
Heightened Def Con from 0.000114318 to 0.000114319
Heightened Def Con from 0.000116353 to 0.000116354
Heightened Def Con from 0.000117319 to 0.00011732
Heightened Def Con from 0.000118263 to 0.000118264
Heightened Def Con from 0.000118316 to 0.000118317
Heightened Def Con from 0.000119317 to 0.000119318
Heightened Def Con from 0.000120088 to 0.000120089
Heightened Def Con from 0.000120263 to 0.000120264
Heightened Def Con from 0.000122318 to 0.000122319
Heightened Def Con from 0.000123263 to 0.000123264
Heightened Def Con from 0.000123319 to 0.00012332
Heightened Def Con from 0.000124263 to 0.000124263
Heightened Def Con from 0.000124319 to 0.00012432
Heightened Def Con from 0.000125319 to 0.000125319
Heightened Def Con from 0.000125351 to 0.000125353
Heightened Def Con from 0.000126317 to 0.000126318
Heightened Def Con from 0.000126352 to 0.000126354
Heightened Def Con from 0.000127317 to 0.000127318
Heightened Def Con from 0.000128347 to 0.000128349
Heightened Def Con from 0.00012935 to 0.000129352
Heightened Def Con from 0.000130262 to 0.000130263
Heightened Def Con from 0.000130317 to 0.000130318
Heightened Def Con from 0.000130352 to 0.000130354
Heightened Def Con from 0.000131263 to 0.000131264
Heightened Def Con from 0.000131319 to 0.00013132
Heightened Def Con from 0.000134318 to 0.000134319
Heightened Def Con from 0.000135352 to 0.000135354
Heightened Def Con from 0.000136317 to 0.000136318
Heightened Def Con from 0.000136349 to 0.000136351
Heightened Def Con from 0.000137317 to 0.000137318
Heightened Def Con from 0.000138352 to 0.000138353
Heightened Def Con from 0.000139318 to 0.000139318
Heightened Def Con from 0.000140355 to 0.000140357
Heightened Def Con from 0.000142318 to 0.000142319
Heightened Def Con from 0.000143317 to 0.000143318
Heightened Def Con from 0.000147352 to 0.000147354
Heightened Def Con from 0.000148318 to 0.000148324
Heightened Def Con from 0.000149088 to 0.000149089
Heightened Def Con from 0.000149316 to 0.000149317
Heightened Def Con from 0.000150317 to 0.000150318
Heightened Def Con from 0.000150352 to 0.000150354
Heightened Def Con from 0.000152088 to 0.000152088
Heightened Def Con from 0.000153317 to 0.000153318
Heightened Def Con from 0.000154263 to 0.000154263
Heightened Def Con from 0.000154317 to 0.000154318
Heightened Def Con from 0.000155265 to 0.000155266
Heightened Def Con from 0.000155318 to 0.000155319
Heightened Def Con from 0.000155354 to 0.000155356
Heightened Def Con from 0.000156264 to 0.000156265
Heightened Def Con from 0.000157319 to 0.000157319
Heightened Def Con from 0.000157346 to 0.000157348
Heightened Def Con from 0.000158317 to 0.000158318
Heightened Def Con from 0.000159088 to 0.000159089
Heightened Def Con from 0.000159317 to 0.000159318
Heightened Def Con from 0.000161317 to 0.000161318
Heightened Def Con from 0.000161352 to 0.000161354
Heightened Def Con from 0.000162263 to 0.000162264
Heightened Def Con from 0.000162353 to 0.000162354
Heightened Def Con from 0.000163318 to 0.000163318
Heightened Def Con from 0.000163353 to 0.000163355
Heightened Def Con from 0.000165317 to 0.000165318
Heightened Def Con from 0.000166319 to 0.000166319
Heightened Def Con from 0.000167353 to 0.000167355
Heightened Def Con from 0.000169087 to 0.000169088
Heightened Def Con from 0.000169318 to 0.000169319
Heightened Def Con from 0.000170263 to 0.000170264
Heightened Def Con from 0.000170318 to 0.000170318
Heightened Def Con from 0.000173351 to 0.000173353
Heightened Def Con from 0.000175265 to 0.000175265
Heightened Def Con from 0.000175353 to 0.000175355
Heightened Def Con from 0.000176263 to 0.000176264
Heightened Def Con from 0.000177317 to 0.000177318
Heightened Def Con from 0.000177353 to 0.000177354
Heightened Def Con from 0.000178262 to 0.000178263
Heightened Def Con from 0.000178351 to 0.000178353
Heightened Def Con from 0.000179265 to 0.000179276
Heightened Def Con from 0.000179317 to 0.000179318
Heightened Def Con from 0.000179353 to 0.000179355
Heightened Def Con from 0.000180264 to 0.000180265
Heightened Def Con from 0.000181318 to 0.000181319
Heightened Def Con from 0.000183088 to 0.000183088
Heightened Def Con from 0.000184263 to 0.000184263
Heightened Def Con from 0.000184318 to 0.000184319
Heightened Def Con from 0.000187266 to 0.000187267
Heightened Def Con from 0.000188316 to 0.000188317
Heightened Def Con from 0.000188352 to 0.000188354
Heightened Def Con from 0.000189319 to 0.00018932
Heightened Def Con from 0.000190318 to 0.000190318
Heightened Def Con from 0.000191318 to 0.000191319
Heightened Def Con from 0.000192317 to 0.000192318
Heightened Def Con from 0.000193348 to 0.00019335
Heightened Def Con from 0.000194088 to 0.000194089
Heightened Def Con from 0.000194318 to 0.000194319
Heightened Def Con from 0.000194353 to 0.000194355
Heightened Def Con from 0.000195318 to 0.000195319
Heightened Def Con from 0.000197265 to 0.000197265
Heightened Def Con from 0.000197351 to 0.000197353
Heightened Def Con from 0.000198317 to 0.000198317
Heightened Def Con from 0.000199316 to 0.000199317
Heightened Def Con from 0.000200263 to 0.000200264
Heightened Def Con from 0.000201088 to 0.000201089
Heightened Def Con from 0.000201319 to 0.00020132
Heightened Def Con from 0.000202316 to 0.000202317
Heightened Def Con from 0.000203088 to 0.000203089
Heightened Def Con from 0.000204262 to 0.000204263
Heightened Def Con from 0.000204353 to 0.000204355
Heightened Def Con from 0.000205318 to 0.000205319
Heightened Def Con from 0.000206266 to 0.000206267
Heightened Def Con from 0.000206355 to 0.000206356
Heightened Def Con from 0.000207088 to 0.000207089
Heightened Def Con from 0.000207264 to 0.000207265
Heightened Def Con from 0.000207318 to 0.000207319
Heightened Def Con from 0.000207354 to 0.000207356
Heightened Def Con from 0.000208265 to 0.000208266
Heightened Def Con from 0.000209319 to 0.00020932
Heightened Def Con from 0.000210264 to 0.000210264
Heightened Def Con from 0.000210318 to 0.000210318
Heightened Def Con from 0.00021035 to 0.000210352
Heightened Def Con from 0.000211088 to 0.000211089
Heightened Def Con from 0.000212318 to 0.000212324
Heightened Def Con from 0.000214264 to 0.000214264
Heightened Def Con from 0.000214351 to 0.000214353
Heightened Def Con from 0.000215319 to 0.00021532
Heightened Def Con from 0.000216262 to 0.000216262
Heightened Def Con from 0.000216318 to 0.000216319
Heightened Def Con from 0.000218087 to 0.000218088
Heightened Def Con from 0.000218317 to 0.000218318
Heightened Def Con from 0.000219352 to 0.000219354
Heightened Def Con from 0.000220087 to 0.000220088
Heightened Def Con from 0.000220263 to 0.000220263
Heightened Def Con from 0.000220318 to 0.000220319
Heightened Def Con from 0.00022035 to 0.000220352
Heightened Def Con from 0.000221318 to 0.000221319
Heightened Def Con from 0.000222088 to 0.000222089
Heightened Def Con from 0.000222317 to 0.000222318
Heightened Def Con from 0.000222353 to 0.000222355
Heightened Def Con from 0.000223086 to 0.000223087
Heightened Def Con from 0.000223318 to 0.000223319
Heightened Def Con from 0.000224089 to 0.000224089
Heightened Def Con from 0.000225349 to 0.000225351
Heightened Def Con from 0.000227261 to 0.000227262
Heightened Def Con from 0.000227318 to 0.000227319
Heightened Def Con from 0.000228263 to 0.000228263
Heightened Def Con from 0.000228318 to 0.000228319
Heightened Def Con from 0.000228354 to 0.000228355
Heightened Def Con from 0.000230317 to 0.000230318
Heightened Def Con from 0.000233349 to 0.000233351
Heightened Def Con from 0.000234088 to 0.000234089
Heightened Def Con from 0.000234319 to 0.00023432
Heightened Def Con from 0.00023509 to 0.000235091
Heightened Def Con from 0.000235317 to 0.000235318
Heightened Def Con from 0.00023535 to 0.000235352
Heightened Def Con from 0.000236088 to 0.000236089
Heightened Def Con from 0.000237087 to 0.000237088
Heightened Def Con from 0.000237262 to 0.000237263
Heightened Def Con from 0.000237351 to 0.000237353
Heightened Def Con from 0.000238261 to 0.000238261
Heightened Def Con from 0.000238318 to 0.000238319
Heightened Def Con from 0.000238354 to 0.000238356
Heightened Def Con from 0.000240318 to 0.000240319
Heightened Def Con from 0.00024126 to 0.000241261
Heightened Def Con from 0.000241352 to 0.000241354
Heightened Def Con from 0.000242317 to 0.000242318
Heightened Def Con from 0.000243316 to 0.000243317
Heightened Def Con from 0.000244089 to 0.00024409
Heightened Def Con from 0.000246263 to 0.000246263
Heightened Def Con from 0.000246354 to 0.000246356
Heightened Def Con from 0.000247348 to 0.00024735
Heightened Def Con from 0.000248317 to 0.000248318
Heightened Def Con from 0.000249262 to 0.000249262
Heightened Def Con from 0.000249349 to 0.000249351
Heightened Def Con from 0.000251353 to 0.000251355
Heightened Def Con from 0.000254351 to 0.000254353
Heightened Def Con from 0.000257262 to 0.000257262
Heightened Def Con from 0.000257349 to 0.000257351
Heightened Def Con from 0.000258318 to 0.000258319
Heightened Def Con from 0.000259319 to 0.00025932
Heightened Def Con from 0.000260318 to 0.000260319
Heightened Def Con from 0.000261316 to 0.000261317
Heightened Def Con from 0.000262088 to 0.000262089
Heightened Def Con from 0.000262318 to 0.000262319
Heightened Def Con from 0.000263262 to 0.000263262
Heightened Def Con from 0.000264088 to 0.000264089
Heightened Def Con from 0.000264355 to 0.000264357
Heightened Def Con from 0.000265353 to 0.000265355
Heightened Def Con from 0.000266316 to 0.000266317
Heightened Def Con from 0.000267318 to 0.000267318
Heightened Def Con from 0.000268263 to 0.000268263
Heightened Def Con from 0.000268318 to 0.000268318
Heightened Def Con from 0.000269318 to 0.000269324
Heightened Def Con from 0.000270318 to 0.000270319
Heightened Def Con from 0.000270348 to 0.000270356
Heightened Def Con from 0.000271349 to 0.000271351
Heightened Def Con from 0.000272263 to 0.000272264
Heightened Def Con from 0.000273263 to 0.000273263
Heightened Def Con from 0.000273319 to 0.00027332
Heightened Def Con from 0.000274262 to 0.000274263
Heightened Def Con from 0.000274351 to 0.000274353
Heightened Def Con from 0.000276087 to 0.000276088
Heightened Def Con from 0.000276351 to 0.000276353
Heightened Def Con from 0.000277262 to 0.000277262
Heightened Def Con from 0.000277319 to 0.00027732
Heightened Def Con from 0.000277351 to 0.000277353
Heightened Def Con from 0.000278262 to 0.000278262
Heightened Def Con from 0.000279266 to 0.000279266
Heightened Def Con from 0.000279354 to 0.000279356
Heightened Def Con from 0.000281262 to 0.000281262
Heightened Def Con from 0.000281318 to 0.000281319
Heightened Def Con from 0.000281351 to 0.000281353
Heightened Def Con from 0.000282317 to 0.000282318
Heightened Def Con from 0.000283089 to 0.00028309
Heightened Def Con from 0.000283318 to 0.000283319
Heightened Def Con from 0.000283348 to 0.00028335
Heightened Def Con from 0.000284318 to 0.000284324
Heightened Def Con from 0.000285319 to 0.00028532
Heightened Def Con from 0.000285349 to 0.000285351
Heightened Def Con from 0.000286263 to 0.000286263
Heightened Def Con from 0.000287264 to 0.000287265
Heightened Def Con from 0.000288258 to 0.000288259
Heightened Def Con from 0.000288318 to 0.000288319
Heightened Def Con from 0.000289319 to 0.00028932
Heightened Def Con from 0.000290263 to 0.000290264
Heightened Def Con from 0.000290316 to 0.000290317
Heightened Def Con from 0.000292348 to 0.00029235
Heightened Def Con from 0.000295087 to 0.000295088
Heightened Def Con from 0.00029526 to 0.000295261
Heightened Def Con from 0.000295351 to 0.000295353
Heightened Def Con from 0.000296317 to 0.000296318
Heightened Def Con from 0.000297089 to 0.00029709
Heightened Def Con from 0.000298317 to 0.000298318
Heightened Def Con from 0.000299319 to 0.00029932
Heightened Def Con from 0.000300262 to 0.000300263
Heightened Def Con from 0.000301349 to 0.000301351
Heightened Def Con from 0.000302262 to 0.000302262
Heightened Def Con from 0.000302317 to 0.000302318
Heightened Def Con from 0.000302353 to 0.000302354
Heightened Def Con from 0.000303319 to 0.000303319
Heightened Def Con from 0.000304262 to 0.000304263
Heightened Def Con from 0.000306318 to 0.000306318
Heightened Def Con from 0.000308087 to 0.000308088
Heightened Def Con from 0.000308316 to 0.000308317
Heightened Def Con from 0.000309316 to 0.000309317
Heightened Def Con from 0.000310262 to 0.000310263
Heightened Def Con from 0.000311319 to 0.00031132
Heightened Def Con from 0.000311349 to 0.000311351
Heightened Def Con from 0.000312261 to 0.000312262
Heightened Def Con from 0.000313316 to 0.000313317
Heightened Def Con from 0.000314088 to 0.000314089
Heightened Def Con from 0.000314318 to 0.000314319
Heightened Def Con from 0.000315318 to 0.000315319
Heightened Def Con from 0.000317318 to 0.000317318
Heightened Def Con from 0.000317353 to 0.000317355
Heightened Def Con from 0.000318262 to 0.000318263
Heightened Def Con from 0.000319352 to 0.000319354
Heightened Def Con from 0.000320263 to 0.000320274
Heightened Def Con from 0.000320318 to 0.000320319
Heightened Def Con from 0.000321263 to 0.000321264
Heightened Def Con from 0.000321316 to 0.000321317
Heightened Def Con from 0.000322354 to 0.000322356
Heightened Def Con from 0.000323317 to 0.000323318
Heightened Def Con from 0.000324316 to 0.000324317
Heightened Def Con from 0.000325089 to 0.00032509
Heightened Def Con from 0.000327354 to 0.000327356
Heightened Def Con from 0.000328088 to 0.000328089
Heightened Def Con from 0.000329352 to 0.000329354
Heightened Def Con from 0.000331087 to 0.000331088
Heightened Def Con from 0.000331319 to 0.000331319
Heightened Def Con from 0.000332088 to 0.000332089
Heightened Def Con from 0.000333318 to 0.000333319
Heightened Def Con from 0.000333351 to 0.000333353
Heightened Def Con from 0.000334263 to 0.000334274
Heightened Def Con from 0.000334317 to 0.000334318
Heightened Def Con from 0.000335319 to 0.00033532
Heightened Def Con from 0.000336319 to 0.00033632
Heightened Def Con from 0.000337263 to 0.000337264
Heightened Def Con from 0.000337317 to 0.000337318
Heightened Def Con from 0.000338261 to 0.000338262
Heightened Def Con from 0.000338319 to 0.00033832
Heightened Def Con from 0.000339353 to 0.000339355
Heightened Def Con from 0.000340354 to 0.000340356
Heightened Def Con from 0.000341316 to 0.000341317
Heightened Def Con from 0.000342088 to 0.000342089
Heightened Def Con from 0.000343262 to 0.000343263
Heightened Def Con from 0.000343348 to 0.00034335
Heightened Def Con from 0.000344088 to 0.000344089
Heightened Def Con from 0.000345318 to 0.000345319
Heightened Def Con from 0.000346261 to 0.000346262
Heightened Def Con from 0.000347354 to 0.000347356
Heightened Def Con from 0.000348317 to 0.000348318
Heightened Def Con from 0.000349262 to 0.000349273
Heightened Def Con from 0.000349317 to 0.000349318
Heightened Def Con from 0.000349353 to 0.000349355
Heightened Def Con from 0.000350089 to 0.00035009
Heightened Def Con from 0.000350317 to 0.000350318
Heightened Def Con from 0.000351089 to 0.00035109
Heightened Def Con from 0.000352262 to 0.000352263
Heightened Def Con from 0.000352319 to 0.000352319
Heightened Def Con from 0.000353318 to 0.000353319
Heightened Def Con from 0.000353353 to 0.000353355
Heightened Def Con from 0.000354263 to 0.000354263
Heightened Def Con from 0.000354319 to 0.000354319
Heightened Def Con from 0.000354349 to 0.000354351
Heightened Def Con from 0.000355088 to 0.000355088
Heightened Def Con from 0.000355264 to 0.000355265
Heightened Def Con from 0.000356352 to 0.000356354
Heightened Def Con from 0.000357316 to 0.000357317
Heightened Def Con from 0.000357352 to 0.000357354
Heightened Def Con from 0.000360087 to 0.000360088
Heightened Def Con from 0.000360317 to 0.000360318
Heightened Def Con from 0.000361352 to 0.000361354
Heightened Def Con from 0.000362319 to 0.00036232
Heightened Def Con from 0.000363317 to 0.000363318
Heightened Def Con from 0.000364088 to 0.000364089
Heightened Def Con from 0.000368317 to 0.000368318
Heightened Def Con from 0.000369317 to 0.000369318
Heightened Def Con from 0.000370087 to 0.000370088
Heightened Def Con from 0.000370319 to 0.000370319
Heightened Def Con from 0.000370354 to 0.000370356
Heightened Def Con from 0.000371317 to 0.000371318
Heightened Def Con from 0.000372316 to 0.000372317
Heightened Def Con from 0.000373263 to 0.000373264
Heightened Def Con from 0.000374264 to 0.000374264
Heightened Def Con from 0.000374318 to 0.000374318
Heightened Def Con from 0.000375348 to 0.00037535
Heightened Def Con from 0.000378317 to 0.000378317
Heightened Def Con from 0.000378353 to 0.000378354
Heightened Def Con from 0.000379317 to 0.000379318
Heightened Def Con from 0.000381261 to 0.000381261
Heightened Def Con from 0.000382319 to 0.00038232
Heightened Def Con from 0.000383263 to 0.000383264
Heightened Def Con from 0.000385263 to 0.000385264
Heightened Def Con from 0.000385317 to 0.000385318
Heightened Def Con from 0.000386261 to 0.000386262
Heightened Def Con from 0.000387316 to 0.000387317
Heightened Def Con from 0.000388087 to 0.000388087
Heightened Def Con from 0.000388355 to 0.000388357
Heightened Def Con from 0.000389087 to 0.000389088
Heightened Def Con from 0.00038926 to 0.000389261
Heightened Def Con from 0.000390261 to 0.000390261
Heightened Def Con from 0.000391318 to 0.000391319
Heightened Def Con from 0.000392318 to 0.000392319
Heightened Def Con from 0.000393088 to 0.000393089
Heightened Def Con from 0.000393262 to 0.000393263
Heightened Def Con from 0.000395263 to 0.000395264
Heightened Def Con from 0.000395318 to 0.000395319
Heightened Def Con from 0.000396318 to 0.000396319
Heightened Def Con from 0.000396353 to 0.000396355
Heightened Def Con from 0.000397263 to 0.000397263
Heightened Def Con from 0.000398317 to 0.000398317
Heightened Def Con from 0.000399263 to 0.000399263
Heightened Def Con from 0.000400319 to 0.000400319
Heightened Def Con from 0.000400351 to 0.000400353
Heightened Def Con from 0.000401317 to 0.000401318
Heightened Def Con from 0.000401352 to 0.000401354
Heightened Def Con from 0.000402317 to 0.000402318
Heightened Def Con from 0.000403088 to 0.000403089
Heightened Def Con from 0.000403353 to 0.000403355
Heightened Def Con from 0.000404317 to 0.000404318
Heightened Def Con from 0.000407263 to 0.000407264
Heightened Def Con from 0.000407317 to 0.000407318
Heightened Def Con from 0.00040735 to 0.000407352
Heightened Def Con from 0.000409088 to 0.000409089
Heightened Def Con from 0.000409318 to 0.000409319
Heightened Def Con from 0.000410263 to 0.000410263
Heightened Def Con from 0.000410349 to 0.00041035
Heightened Def Con from 0.000411317 to 0.000411318
Heightened Def Con from 0.000414318 to 0.000414319
Heightened Def Con from 0.000417264 to 0.000417264
Heightened Def Con from 0.000417317 to 0.000417318
Heightened Def Con from 0.000418263 to 0.000418264
Heightened Def Con from 0.000418316 to 0.000418317
Heightened Def Con from 0.000419354 to 0.000419355
Heightened Def Con from 0.000420087 to 0.000420088
Heightened Def Con from 0.000421319 to 0.000421325
Heightened Def Con from 0.000422263 to 0.000422263
Heightened Def Con from 0.000422319 to 0.00042232
Heightened Def Con from 0.000423263 to 0.000423264
Heightened Def Con from 0.000424319 to 0.000424319
Heightened Def Con from 0.000424354 to 0.000424356
Heightened Def Con from 0.000426318 to 0.000426319
Heightened Def Con from 0.000428264 to 0.000428264
Heightened Def Con from 0.000428318 to 0.000428319
Heightened Def Con from 0.000429317 to 0.000429317
Heightened Def Con from 0.000430351 to 0.000430353
Heightened Def Con from 0.000431262 to 0.000431263
Heightened Def Con from 0.000432263 to 0.000432264
Heightened Def Con from 0.000432317 to 0.000432318
Heightened Def Con from 0.000433087 to 0.000433087
Heightened Def Con from 0.000433263 to 0.000433264
Heightened Def Con from 0.000433318 to 0.000433319
Heightened Def Con from 0.000433349 to 0.00043335
Heightened Def Con from 0.000435262 to 0.000435262
Heightened Def Con from 0.000436262 to 0.000436262
Heightened Def Con from 0.000436318 to 0.000436319
Heightened Def Con from 0.000437262 to 0.000437262
Heightened Def Con from 0.000437318 to 0.000437319
Heightened Def Con from 0.000437354 to 0.000437355
Heightened Def Con from 0.000439262 to 0.000439263
Heightened Def Con from 0.000440316 to 0.000440317
Heightened Def Con from 0.000441089 to 0.00044109
Heightened Def Con from 0.000442263 to 0.000442264
Heightened Def Con from 0.000442352 to 0.000442354
Heightened Def Con from 0.000443317 to 0.000443318
Heightened Def Con from 0.000443353 to 0.000443355
Heightened Def Con from 0.000444348 to 0.00044435
Heightened Def Con from 0.000445317 to 0.000445318
Heightened Def Con from 0.000445353 to 0.000445355
Heightened Def Con from 0.000446262 to 0.000446273
Heightened Def Con from 0.000446318 to 0.000446319
Heightened Def Con from 0.000447353 to 0.000447355
Heightened Def Con from 0.000448262 to 0.000448262
Heightened Def Con from 0.000448316 to 0.000448317
Heightened Def Con from 0.000450263 to 0.000450263
Heightened Def Con from 0.000450352 to 0.000450353
Heightened Def Con from 0.000453262 to 0.000453263
Heightened Def Con from 0.000453318 to 0.000453319
Heightened Def Con from 0.000453351 to 0.000453353
Heightened Def Con from 0.000454263 to 0.000454263
Heightened Def Con from 0.000454317 to 0.000454318
Heightened Def Con from 0.000454353 to 0.000454355
Heightened Def Con from 0.000455088 to 0.000455088
Heightened Def Con from 0.000455317 to 0.000455318
Heightened Def Con from 0.000456263 to 0.000456264
Heightened Def Con from 0.000457317 to 0.000457323
Heightened Def Con from 0.000457348 to 0.00045735
Heightened Def Con from 0.000458087 to 0.000458088
Heightened Def Con from 0.000458261 to 0.000458262
Heightened Def Con from 0.000458318 to 0.000458319
Heightened Def Con from 0.000459087 to 0.000459088
Heightened Def Con from 0.000459262 to 0.000459263
Heightened Def Con from 0.000459353 to 0.000459355
Heightened Def Con from 0.000460316 to 0.000460317
Heightened Def Con from 0.00046035 to 0.000460352
Heightened Def Con from 0.000461089 to 0.00046109
Heightened Def Con from 0.000462263 to 0.000462264
Heightened Def Con from 0.000463353 to 0.000463355
Heightened Def Con from 0.000465317 to 0.000465318
Heightened Def Con from 0.000465353 to 0.000465355
Heightened Def Con from 0.000466088 to 0.000466089
Heightened Def Con from 0.000466262 to 0.000466263
Heightened Def Con from 0.000466318 to 0.000466319
Heightened Def Con from 0.000467088 to 0.000467088
Heightened Def Con from 0.000467318 to 0.000467318
Heightened Def Con from 0.000468317 to 0.000468323
Heightened Def Con from 0.000469263 to 0.000469264
Heightened Def Con from 0.000470317 to 0.000470318
Heightened Def Con from 0.000472262 to 0.000472263
Heightened Def Con from 0.000472317 to 0.000472318
Heightened Def Con from 0.000473318 to 0.000473319
Heightened Def Con from 0.000473351 to 0.000473353
Heightened Def Con from 0.000475317 to 0.000475318
Heightened Def Con from 0.000476262 to 0.000476262
Heightened Def Con from 0.000477262 to 0.000477262
Heightened Def Con from 0.000477318 to 0.000477319
Heightened Def Con from 0.000478319 to 0.00047832
Heightened Def Con from 0.000478354 to 0.000478356
Heightened Def Con from 0.000479349 to 0.000479351
Heightened Def Con from 0.000480355 to 0.000480357
Heightened Def Con from 0.000482262 to 0.000482262
Heightened Def Con from 0.000483317 to 0.000483317
Heightened Def Con from 0.000483353 to 0.000483354
Heightened Def Con from 0.000484351 to 0.000484353
Heightened Def Con from 0.000485261 to 0.000485262
Heightened Def Con from 0.000485318 to 0.000485319
Heightened Def Con from 0.000485353 to 0.000485355
Heightened Def Con from 0.000486353 to 0.000486355
Heightened Def Con from 0.000487263 to 0.000487264
Heightened Def Con from 0.000487319 to 0.00048732
Heightened Def Con from 0.000487349 to 0.000487351
Heightened Def Con from 0.000488089 to 0.00048809
Heightened Def Con from 0.000488318 to 0.000488319
Heightened Def Con from 0.000489319 to 0.00048932
Heightened Def Con from 0.000490316 to 0.000490317
Heightened Def Con from 0.000492262 to 0.000492263
Heightened Def Con from 0.000493263 to 0.000493274
Heightened Def Con from 0.00049409 to 0.000494091
Heightened Def Con from 0.000494318 to 0.000494319
Heightened Def Con from 0.000494352 to 0.000494354
Heightened Def Con from 0.000495352 to 0.000495354
Heightened Def Con from 0.000496087 to 0.000496088
Heightened Def Con from 0.000496319 to 0.00049632
Heightened Def Con from 0.000496354 to 0.000496356
Heightened Def Con from 0.000497318 to 0.000497319
Heightened Def Con from 0.000497351 to 0.000497353
Heightened Def Con from 0.000499318 to 0.000499318
Heightened Def Con from 0.000501319 to 0.00050132
Heightened Def Con from 0.000502088 to 0.000502089
Heightened Def Con from 0.000502319 to 0.00050232
Heightened Def Con from 0.000505088 to 0.000505089
Heightened Def Con from 0.000505352 to 0.000505354
Heightened Def Con from 0.000506318 to 0.000506324
Heightened Def Con from 0.000507262 to 0.000507262
Heightened Def Con from 0.000508264 to 0.000508265
Heightened Def Con from 0.000509262 to 0.000509263
Heightened Def Con from 0.000509355 to 0.000509356
Heightened Def Con from 0.000510317 to 0.000510318
Heightened Def Con from 0.000511319 to 0.000511319
Heightened Def Con from 0.000512318 to 0.000512319
Heightened Def Con from 0.000512351 to 0.000512353
Heightened Def Con from 0.000513263 to 0.000513263
Heightened Def Con from 0.000515318 to 0.000515319
Heightened Def Con from 0.000515353 to 0.000515355
Heightened Def Con from 0.000516353 to 0.000516355
Heightened Def Con from 0.000517262 to 0.000517263
Heightened Def Con from 0.000517317 to 0.000517317
Heightened Def Con from 0.000520262 to 0.000520262
Heightened Def Con from 0.000522318 to 0.000522319
Heightened Def Con from 0.000523352 to 0.000523354
Heightened Def Con from 0.000525087 to 0.000525088
Heightened Def Con from 0.000525354 to 0.000525356
Heightened Def Con from 0.000526087 to 0.000526088
Heightened Def Con from 0.000529261 to 0.000529262
Heightened Def Con from 0.000529317 to 0.000529318
Heightened Def Con from 0.000530263 to 0.000530263
Heightened Def Con from 0.000531318 to 0.000531319
Heightened Def Con from 0.000531353 to 0.000531355
Heightened Def Con from 0.000533265 to 0.000533265
Heightened Def Con from 0.000533318 to 0.000533319
Heightened Def Con from 0.00053509 to 0.000535091
Heightened Def Con from 0.000535264 to 0.000535264
Heightened Def Con from 0.000535317 to 0.000535318
Heightened Def Con from 0.000536317 to 0.000536317
Heightened Def Con from 0.000536351 to 0.000536353
Heightened Def Con from 0.000537351 to 0.000537353
Heightened Def Con from 0.000538264 to 0.000538265
Heightened Def Con from 0.000538318 to 0.000538319
Heightened Def Con from 0.000539088 to 0.000539089
Heightened Def Con from 0.000539262 to 0.000539263
Heightened Def Con from 0.000539352 to 0.000539354
Heightened Def Con from 0.000540264 to 0.000540264
Heightened Def Con from 0.000541318 to 0.000541319
Heightened Def Con from 0.000541353 to 0.000541355
Heightened Def Con from 0.000542087 to 0.000542088
Heightened Def Con from 0.000543263 to 0.000543264
Heightened Def Con from 0.000543353 to 0.000543354
Heightened Def Con from 0.000544262 to 0.000544262
Heightened Def Con from 0.000545351 to 0.000545353
Heightened Def Con from 0.000546087 to 0.000546088
Heightened Def Con from 0.000547318 to 0.000547319
Heightened Def Con from 0.000549088 to 0.000549088
Heightened Def Con from 0.000549351 to 0.000549353
Heightened Def Con from 0.000551264 to 0.000551264
Heightened Def Con from 0.000551319 to 0.00055132
Heightened Def Con from 0.000554318 to 0.000554319
Heightened Def Con from 0.000555089 to 0.00055509
Heightened Def Con from 0.000555318 to 0.000555318
Heightened Def Con from 0.000555352 to 0.00055536
Heightened Def Con from 0.000556263 to 0.000556264
Heightened Def Con from 0.000556317 to 0.000556318
Heightened Def Con from 0.000557263 to 0.000557263
Heightened Def Con from 0.000557316 to 0.000557317
Heightened Def Con from 0.000558264 to 0.000558264
Heightened Def Con from 0.000558354 to 0.000558355
Heightened Def Con from 0.00056009 to 0.000560091
Heightened Def Con from 0.000560318 to 0.000560319
Heightened Def Con from 0.000560355 to 0.000560357
Heightened Def Con from 0.00056109 to 0.000561091
Heightened Def Con from 0.000564087 to 0.000564088
Heightened Def Con from 0.000564317 to 0.000564318
Heightened Def Con from 0.000564353 to 0.000564355
Heightened Def Con from 0.000565316 to 0.000565317
Heightened Def Con from 0.000566263 to 0.000566264
Heightened Def Con from 0.000566318 to 0.000566319
Heightened Def Con from 0.000566351 to 0.000566353
Heightened Def Con from 0.000568088 to 0.000568089
Heightened Def Con from 0.000568317 to 0.000568318
Heightened Def Con from 0.000569087 to 0.000569088
Heightened Def Con from 0.000569263 to 0.000569264
Heightened Def Con from 0.000569317 to 0.000569318
Heightened Def Con from 0.000569352 to 0.000569354
Heightened Def Con from 0.000570318 to 0.000570319
Heightened Def Con from 0.000572263 to 0.000572264
Heightened Def Con from 0.000572317 to 0.000572318
Heightened Def Con from 0.000573263 to 0.000573264
Heightened Def Con from 0.000573317 to 0.000573318
Heightened Def Con from 0.000573352 to 0.000573354
Heightened Def Con from 0.000575263 to 0.000575264
Heightened Def Con from 0.000575317 to 0.000575318
Heightened Def Con from 0.00057535 to 0.000575352
Heightened Def Con from 0.000576319 to 0.000576319
Heightened Def Con from 0.000576351 to 0.000576352
Heightened Def Con from 0.000577318 to 0.000577319
Heightened Def Con from 0.000578087 to 0.000578088
Heightened Def Con from 0.000580263 to 0.000580274
Heightened Def Con from 0.000580352 to 0.000580354
Heightened Def Con from 0.000581263 to 0.000581264
Heightened Def Con from 0.000581317 to 0.000581317
Heightened Def Con from 0.000581354 to 0.000581356
Heightened Def Con from 0.000582318 to 0.000582318
Heightened Def Con from 0.000584261 to 0.000584261
Heightened Def Con from 0.000584319 to 0.000584319
Heightened Def Con from 0.000585263 to 0.000585263
Heightened Def Con from 0.000585317 to 0.000585318
Heightened Def Con from 0.000586317 to 0.000586318
Heightened Def Con from 0.000588353 to 0.000588355
Heightened Def Con from 0.000589262 to 0.000589262
Heightened Def Con from 0.000589318 to 0.000589319
Heightened Def Con from 0.000591353 to 0.000591355
Heightened Def Con from 0.000592352 to 0.000592353
Heightened Def Con from 0.000593318 to 0.000593319
Heightened Def Con from 0.000593353 to 0.000593355
Heightened Def Con from 0.000594088 to 0.000594089
Heightened Def Con from 0.000594318 to 0.000594319
Heightened Def Con from 0.000594351 to 0.000594353
Heightened Def Con from 0.000595349 to 0.000595351
Heightened Def Con from 0.000596262 to 0.000596273
Heightened Def Con from 0.000596318 to 0.000596324
Heightened Def Con from 0.000598263 to 0.000598264
Heightened Def Con from 0.000598353 to 0.000598355
Heightened Def Con from 0.000599089 to 0.00059909
Heightened Def Con from 0.000599319 to 0.00059932
Heightened Def Con from 0.000599349 to 0.000599351
Heightened Def Con from 0.000600261 to 0.000600262
Heightened Def Con from 0.000600317 to 0.000600318
Heightened Def Con from 0.000601318 to 0.000601319
Heightened Def Con from 0.000602348 to 0.00060235
Heightened Def Con from 0.000603317 to 0.000603318
Heightened Def Con from 0.000604317 to 0.000604318
Heightened Def Con from 0.000606263 to 0.000606264
Heightened Def Con from 0.000606354 to 0.000606356
Heightened Def Con from 0.000607261 to 0.000607262
Heightened Def Con from 0.000607318 to 0.000607319
Heightened Def Con from 0.000607351 to 0.000607353
Heightened Def Con from 0.000608353 to 0.000608355
Heightened Def Con from 0.000609087 to 0.000609088
Heightened Def Con from 0.000609264 to 0.000609264
Heightened Def Con from 0.000609353 to 0.000609355
Heightened Def Con from 0.000610351 to 0.000610353
Heightened Def Con from 0.000612318 to 0.000612319
Heightened Def Con from 0.000613317 to 0.000613318
Heightened Def Con from 0.000615316 to 0.000615317
Heightened Def Con from 0.000616088 to 0.000616089
Heightened Def Con from 0.000616353 to 0.000616355
Heightened Def Con from 0.000618263 to 0.000618263
Heightened Def Con from 0.000620318 to 0.000620319
Heightened Def Con from 0.000621263 to 0.000621264
Heightened Def Con from 0.000621317 to 0.000621318
Heightened Def Con from 0.000621353 to 0.000621355
Heightened Def Con from 0.000622319 to 0.000622319
Heightened Def Con from 0.000622351 to 0.000622353
Heightened Def Con from 0.000623262 to 0.000623263
Heightened Def Con from 0.000623317 to 0.000623318
Heightened Def Con from 0.000624262 to 0.000624263
Heightened Def Con from 0.000624352 to 0.000624353
Heightened Def Con from 0.000625316 to 0.000625317
Heightened Def Con from 0.000625353 to 0.000625355
Heightened Def Con from 0.000626317 to 0.000626318
Heightened Def Con from 0.000627087 to 0.000627087
Heightened Def Con from 0.000627316 to 0.000627317
Heightened Def Con from 0.000627352 to 0.000627354
Heightened Def Con from 0.000628261 to 0.000628272
Heightened Def Con from 0.000629263 to 0.000629264
Heightened Def Con from 0.000630088 to 0.000630088
Heightened Def Con from 0.000630318 to 0.000630318
Heightened Def Con from 0.000632316 to 0.000632317
Heightened Def Con from 0.000632352 to 0.000632354
Heightened Def Con from 0.000634262 to 0.000634262
Heightened Def Con from 0.000635088 to 0.000635089
Heightened Def Con from 0.000635319 to 0.000635319
Heightened Def Con from 0.000636088 to 0.000636089
Heightened Def Con from 0.000637351 to 0.000637353
Heightened Def Con from 0.000638316 to 0.000638317
Heightened Def Con from 0.000639319 to 0.00063932
Heightened Def Con from 0.000639352 to 0.000639354
Heightened Def Con from 0.000640087 to 0.000640088
Heightened Def Con from 0.000640351 to 0.000640353
Heightened Def Con from 0.000642317 to 0.000642318
Heightened Def Con from 0.000644264 to 0.000644264
Heightened Def Con from 0.000644351 to 0.000644353
Heightened Def Con from 0.000645318 to 0.000645319
Heightened Def Con from 0.000646262 to 0.000646263
Heightened Def Con from 0.000646318 to 0.000646319
Heightened Def Con from 0.00064726 to 0.00064726
Heightened Def Con from 0.000647317 to 0.000647317
Heightened Def Con from 0.000648089 to 0.000648089
Heightened Def Con from 0.000648319 to 0.00064832
Heightened Def Con from 0.000649088 to 0.000649089
Heightened Def Con from 0.000649318 to 0.000649319
Heightened Def Con from 0.000651262 to 0.000651262
Heightened Def Con from 0.000652263 to 0.000652264
Heightened Def Con from 0.000652317 to 0.000652318
Heightened Def Con from 0.000653087 to 0.000653088
Heightened Def Con from 0.000653317 to 0.000653318
Heightened Def Con from 0.00065335 to 0.000653352
Heightened Def Con from 0.000654263 to 0.000654264
Heightened Def Con from 0.000654318 to 0.000654319
Heightened Def Con from 0.000654351 to 0.000654353
Heightened Def Con from 0.000656088 to 0.000656089
Heightened Def Con from 0.000656262 to 0.000656262
Heightened Def Con from 0.000657264 to 0.000657265
Heightened Def Con from 0.000658348 to 0.00065835
Heightened Def Con from 0.000659088 to 0.000659089
Heightened Def Con from 0.000660317 to 0.000660318
Heightened Def Con from 0.000661317 to 0.000661318
Heightened Def Con from 0.000661351 to 0.000661353
Heightened Def Con from 0.000663316 to 0.000663317
Heightened Def Con from 0.000665352 to 0.000665354
Heightened Def Con from 0.000666317 to 0.000666317
Heightened Def Con from 0.000666352 to 0.000666354
Heightened Def Con from 0.000667088 to 0.000667088
Heightened Def Con from 0.000668317 to 0.000668318
Heightened Def Con from 0.000669264 to 0.000669275
Heightened Def Con from 0.000669317 to 0.000669318
Heightened Def Con from 0.000670319 to 0.00067032
Heightened Def Con from 0.000671317 to 0.000671318
Heightened Def Con from 0.000673264 to 0.000673265
Heightened Def Con from 0.000673318 to 0.000673319
Heightened Def Con from 0.000673348 to 0.00067335
Heightened Def Con from 0.000675262 to 0.000675263
Heightened Def Con from 0.000675318 to 0.000675319
Heightened Def Con from 0.000676318 to 0.000676319
Heightened Def Con from 0.000677088 to 0.000677089
Heightened Def Con from 0.000677263 to 0.000677264
Heightened Def Con from 0.000680262 to 0.000680263
Heightened Def Con from 0.000681317 to 0.000681317
Heightened Def Con from 0.000683263 to 0.000683264
Heightened Def Con from 0.000683318 to 0.000683319
Heightened Def Con from 0.000684352 to 0.000684354
Heightened Def Con from 0.000685353 to 0.000685355
Heightened Def Con from 0.000686316 to 0.000686317
Heightened Def Con from 0.000688319 to 0.00068832
Heightened Def Con from 0.000689263 to 0.000689264
Heightened Def Con from 0.000689318 to 0.000689318
Heightened Def Con from 0.000690317 to 0.000690318
Heightened Def Con from 0.000691317 to 0.000691318
Heightened Def Con from 0.000692318 to 0.000692319
Heightened Def Con from 0.000693262 to 0.000693262
Heightened Def Con from 0.000694088 to 0.000694089
Heightened Def Con from 0.000694317 to 0.000694318
Heightened Def Con from 0.000695087 to 0.000695088
Heightened Def Con from 0.000695318 to 0.000695319
Heightened Def Con from 0.000695353 to 0.000695355
Heightened Def Con from 0.000696088 to 0.000696089
Heightened Def Con from 0.000696263 to 0.000696264
Heightened Def Con from 0.000697088 to 0.000697089
Heightened Def Con from 0.000699317 to 0.000699318
Heightened Def Con from 0.000700348 to 0.00070035
Heightened Def Con from 0.000701317 to 0.000701318
Heightened Def Con from 0.000702262 to 0.000702262
Heightened Def Con from 0.000702318 to 0.000702319
Heightened Def Con from 0.000703317 to 0.000703323
Heightened Def Con from 0.000703351 to 0.000703353
Heightened Def Con from 0.000704351 to 0.000704353
Heightened Def Con from 0.000705088 to 0.000705089
Heightened Def Con from 0.000706352 to 0.000706354
Heightened Def Con from 0.000708088 to 0.000708089
Heightened Def Con from 0.000708319 to 0.00070832
Heightened Def Con from 0.000709318 to 0.000709319
Heightened Def Con from 0.000709354 to 0.000709356
Heightened Def Con from 0.000710319 to 0.00071032
Heightened Def Con from 0.000711261 to 0.000711262
Heightened Def Con from 0.000711319 to 0.00071132
Heightened Def Con from 0.000711352 to 0.000711354
Heightened Def Con from 0.000712264 to 0.000712265
Heightened Def Con from 0.000713317 to 0.000713318
Heightened Def Con from 0.000713353 to 0.000713355
Heightened Def Con from 0.000714088 to 0.000714089
Heightened Def Con from 0.000714263 to 0.000714264
Heightened Def Con from 0.000718319 to 0.00071832
Heightened Def Con from 0.000719316 to 0.000719317
Heightened Def Con from 0.000719353 to 0.000719355
Heightened Def Con from 0.000720263 to 0.000720263
Heightened Def Con from 0.000720316 to 0.000720322
Heightened Def Con from 0.000721263 to 0.000721264
Heightened Def Con from 0.000721351 to 0.000721353
Heightened Def Con from 0.000722088 to 0.000722089
Heightened Def Con from 0.000722258 to 0.000722259
Heightened Def Con from 0.000722318 to 0.000722319
Heightened Def Con from 0.000722351 to 0.000722353
Heightened Def Con from 0.000725264 to 0.000725264
Heightened Def Con from 0.000725318 to 0.000725318
Heightened Def Con from 0.000727318 to 0.000727319
Heightened Def Con from 0.000728262 to 0.000728262
Heightened Def Con from 0.000728318 to 0.000728319
Heightened Def Con from 0.00073009 to 0.000730091
Heightened Def Con from 0.000730317 to 0.000730318
Heightened Def Con from 0.000731261 to 0.000731262
Heightened Def Con from 0.000731318 to 0.000731319
Heightened Def Con from 0.000731351 to 0.000731353
Heightened Def Con from 0.000732263 to 0.000732263
Heightened Def Con from 0.000732317 to 0.000732318
Heightened Def Con from 0.000732348 to 0.00073235
Heightened Def Con from 0.000733263 to 0.000733264
Heightened Def Con from 0.000733354 to 0.000733356
Heightened Def Con from 0.000734318 to 0.000734319
Heightened Def Con from 0.000734346 to 0.000734348
Heightened Def Con from 0.000736353 to 0.000736355
Heightened Def Con from 0.000737262 to 0.000737263
Heightened Def Con from 0.000738319 to 0.000738319
Heightened Def Con from 0.000739088 to 0.000739089
Heightened Def Con from 0.000742263 to 0.000742264
Heightened Def Con from 0.000742353 to 0.000742354
Heightened Def Con from 0.000743261 to 0.000743262
Heightened Def Con from 0.000744261 to 0.000744262
Heightened Def Con from 0.000744352 to 0.000744354
Heightened Def Con from 0.000745353 to 0.000745355
Heightened Def Con from 0.000746263 to 0.000746274
Heightened Def Con from 0.000746316 to 0.000746317
Heightened Def Con from 0.000747263 to 0.000747264
Heightened Def Con from 0.000747351 to 0.000747353
Heightened Def Con from 0.000748317 to 0.000748318
Heightened Def Con from 0.000749318 to 0.000749319
Heightened Def Con from 0.000751353 to 0.000751355
Heightened Def Con from 0.000752354 to 0.000752356
Heightened Def Con from 0.000753352 to 0.000753354
Heightened Def Con from 0.000754317 to 0.000754318
Heightened Def Con from 0.000754353 to 0.000754355
Heightened Def Con from 0.000755317 to 0.000755318
Heightened Def Con from 0.000757263 to 0.000757263
Heightened Def Con from 0.000758317 to 0.000758318
Heightened Def Con from 0.00075835 to 0.000758352
Heightened Def Con from 0.000760088 to 0.000760089
Heightened Def Con from 0.000760317 to 0.000760318
Heightened Def Con from 0.000761262 to 0.000761262
Heightened Def Con from 0.000761318 to 0.000761319
Heightened Def Con from 0.000761351 to 0.000761353
Heightened Def Con from 0.000762262 to 0.000762273
Heightened Def Con from 0.000762318 to 0.000762319
Heightened Def Con from 0.000764318 to 0.000764319
Heightened Def Con from 0.000766087 to 0.000766088
Heightened Def Con from 0.000766262 to 0.000766273
Heightened Def Con from 0.000768088 to 0.000768089
Heightened Def Con from 0.000768319 to 0.00076832
Heightened Def Con from 0.000770316 to 0.000770322
Heightened Def Con from 0.000772318 to 0.000772319
Heightened Def Con from 0.00077235 to 0.000772352
Heightened Def Con from 0.000774317 to 0.000774318
Heightened Def Con from 0.000775087 to 0.000775088
Heightened Def Con from 0.000775317 to 0.000775318
Heightened Def Con from 0.00077535 to 0.000775352
Heightened Def Con from 0.000776088 to 0.000776089
Heightened Def Con from 0.000777263 to 0.000777264
Heightened Def Con from 0.000777316 to 0.000777317
Heightened Def Con from 0.000777352 to 0.000777354
Heightened Def Con from 0.000778088 to 0.000778089
Heightened Def Con from 0.000778319 to 0.00077832
Heightened Def Con from 0.000778349 to 0.000778351
Heightened Def Con from 0.000780088 to 0.000780089
Heightened Def Con from 0.000780263 to 0.000780264
Heightened Def Con from 0.000780316 to 0.000780317
Heightened Def Con from 0.000780351 to 0.000780353
Heightened Def Con from 0.000781262 to 0.000781262
Heightened Def Con from 0.000782263 to 0.000782264
Heightened Def Con from 0.000783317 to 0.000783323
Heightened Def Con from 0.000784319 to 0.00078432
Heightened Def Con from 0.000784349 to 0.000784351
Heightened Def Con from 0.000785317 to 0.000785318
Heightened Def Con from 0.000786263 to 0.000786264
Heightened Def Con from 0.000786317 to 0.000786317
Heightened Def Con from 0.000787262 to 0.000787262
Heightened Def Con from 0.000788263 to 0.000788263
Heightened Def Con from 0.000789264 to 0.000789265
Heightened Def Con from 0.000791262 to 0.000791262
Heightened Def Con from 0.000791349 to 0.000791351
Heightened Def Con from 0.000793264 to 0.000793264
Heightened Def Con from 0.000793318 to 0.000793319
Heightened Def Con from 0.000795087 to 0.000795088
Heightened Def Con from 0.000796318 to 0.000796319
Heightened Def Con from 0.000797319 to 0.00079732
Heightened Def Con from 0.000797349 to 0.000797351
Heightened Def Con from 0.000798089 to 0.00079809
Heightened Def Con from 0.000798317 to 0.000798318
Heightened Def Con from 0.000799262 to 0.000799262
Heightened Def Con from 0.000800263 to 0.000800263
Heightened Def Con from 0.000802088 to 0.000802089
Heightened Def Con from 0.000804263 to 0.000804263
Heightened Def Con from 0.000805262 to 0.000805262
Heightened Def Con from 0.000806351 to 0.000806353
Heightened Def Con from 0.000807354 to 0.000807356
Heightened Def Con from 0.000809317 to 0.000809318
Heightened Def Con from 0.000810088 to 0.000810089
Heightened Def Con from 0.000810261 to 0.000810262
Heightened Def Con from 0.000812088 to 0.000812089
Heightened Def Con from 0.000812263 to 0.000812263
Heightened Def Con from 0.000812316 to 0.000812317
Heightened Def Con from 0.000813088 to 0.000813089
Heightened Def Con from 0.000813262 to 0.000813262
Heightened Def Con from 0.000814262 to 0.000814262
Heightened Def Con from 0.000814352 to 0.000814354
Heightened Def Con from 0.000815318 to 0.000815324
Heightened Def Con from 0.000817348 to 0.00081735
Heightened Def Con from 0.000818355 to 0.000818357
Heightened Def Con from 0.000819263 to 0.000819263
Heightened Def Con from 0.000819349 to 0.000819351
Heightened Def Con from 0.000820318 to 0.000820318
Heightened Def Con from 0.000821317 to 0.000821318
Heightened Def Con from 0.000822354 to 0.000822356
Heightened Def Con from 0.000824317 to 0.000824318
Heightened Def Con from 0.000825263 to 0.000825274
Heightened Def Con from 0.000825319 to 0.00082532
Heightened Def Con from 0.000826353 to 0.000826355
Heightened Def Con from 0.000828263 to 0.000828264
Heightened Def Con from 0.000828317 to 0.000828323
Heightened Def Con from 0.000828351 to 0.000828353
Heightened Def Con from 0.000829317 to 0.000829318
Heightened Def Con from 0.00082935 to 0.000829352
Heightened Def Con from 0.000830263 to 0.000830263
Heightened Def Con from 0.000830318 to 0.000830319
Heightened Def Con from 0.000831262 to 0.000831263
Heightened Def Con from 0.000832319 to 0.00083232
Heightened Def Con from 0.000833317 to 0.000833317
Heightened Def Con from 0.00083426 to 0.000834261
Heightened Def Con from 0.000834317 to 0.000834318
Heightened Def Con from 0.000835352 to 0.000835354
Heightened Def Con from 0.000836264 to 0.000836265
Heightened Def Con from 0.000837319 to 0.00083732
Heightened Def Con from 0.000838088 to 0.000838088
Heightened Def Con from 0.000839088 to 0.000839088
Heightened Def Con from 0.000839262 to 0.000839262
Heightened Def Con from 0.000839318 to 0.000839319
Heightened Def Con from 0.000840263 to 0.000840264
Heightened Def Con from 0.000841263 to 0.000841264
Heightened Def Con from 0.000841354 to 0.000841356
Heightened Def Con from 0.000842262 to 0.000842262
Heightened Def Con from 0.000842318 to 0.000842319
Heightened Def Con from 0.000842351 to 0.000842353
Heightened Def Con from 0.000843352 to 0.000843353
Heightened Def Con from 0.000844088 to 0.000844089
Heightened Def Con from 0.000844317 to 0.000844318
Heightened Def Con from 0.000844351 to 0.000844353
Heightened Def Con from 0.000845088 to 0.000845089
Heightened Def Con from 0.000846317 to 0.000846318
Heightened Def Con from 0.000846353 to 0.000846354
Heightened Def Con from 0.000847316 to 0.000847317
Heightened Def Con from 0.000848317 to 0.000848317
Heightened Def Con from 0.000850316 to 0.000850317
Heightened Def Con from 0.000850351 to 0.000850353
Heightened Def Con from 0.000851319 to 0.000851319
Heightened Def Con from 0.000851354 to 0.000851356
Heightened Def Con from 0.000852352 to 0.000852354
Heightened Def Con from 0.000853263 to 0.000853264
Heightened Def Con from 0.000854316 to 0.000854317
Heightened Def Con from 0.000855349 to 0.00085535
Heightened Def Con from 0.000856319 to 0.000856319
Heightened Def Con from 0.000858318 to 0.000858319
Heightened Def Con from 0.000859088 to 0.000859088
Heightened Def Con from 0.000859262 to 0.000859262
Heightened Def Con from 0.000859352 to 0.000859354
Heightened Def Con from 0.000860088 to 0.000860089
Heightened Def Con from 0.000860348 to 0.00086035
Heightened Def Con from 0.000861316 to 0.000861317
Heightened Def Con from 0.000862318 to 0.000862319
Heightened Def Con from 0.000863317 to 0.000863318
Heightened Def Con from 0.000863353 to 0.000863355
Heightened Def Con from 0.000864319 to 0.000864319
Heightened Def Con from 0.000865318 to 0.000865319
Heightened Def Con from 0.000866348 to 0.00086635
Heightened Def Con from 0.000867352 to 0.000867354
Heightened Def Con from 0.000868263 to 0.000868264
Heightened Def Con from 0.000868317 to 0.000868317
Heightened Def Con from 0.000869263 to 0.000869263
Heightened Def Con from 0.000870316 to 0.000870317
Heightened Def Con from 0.000875262 to 0.000875262
Heightened Def Con from 0.000875355 to 0.000875357
Heightened Def Con from 0.000876354 to 0.000876356
Heightened Def Con from 0.000877263 to 0.000877264
Heightened Def Con from 0.000878264 to 0.000878265
Heightened Def Con from 0.000879263 to 0.000879263
Heightened Def Con from 0.000879316 to 0.000879317
Heightened Def Con from 0.000880317 to 0.000880317
Heightened Def Con from 0.000881319 to 0.00088132
Heightened Def Con from 0.000882317 to 0.000882318
Heightened Def Con from 0.000882353 to 0.000882355
Heightened Def Con from 0.000884088 to 0.000884089
Heightened Def Con from 0.000884317 to 0.000884318
Heightened Def Con from 0.000884354 to 0.000884356
Heightened Def Con from 0.000886087 to 0.000886088
Heightened Def Con from 0.000886317 to 0.000886318
Heightened Def Con from 0.000887318 to 0.000887319
Heightened Def Con from 0.000888317 to 0.000888318
Heightened Def Con from 0.000888357 to 0.000888358
Heightened Def Con from 0.000889088 to 0.000889089
Heightened Def Con from 0.000892316 to 0.000892317
Heightened Def Con from 0.000893263 to 0.000893264
Heightened Def Con from 0.000893319 to 0.000893319
Heightened Def Con from 0.000893349 to 0.000893351
Heightened Def Con from 0.000895353 to 0.000895355
Heightened Def Con from 0.000896318 to 0.000896318
Heightened Def Con from 0.000897264 to 0.000897264
Heightened Def Con from 0.000900263 to 0.000900264
Heightened Def Con from 0.000900352 to 0.000900354
Heightened Def Con from 0.000902087 to 0.000902088
Heightened Def Con from 0.000903318 to 0.000903319
Heightened Def Con from 0.000904262 to 0.000904262
Heightened Def Con from 0.000904318 to 0.000904319
Heightened Def Con from 0.000908263 to 0.000908263
Heightened Def Con from 0.000908352 to 0.000908354
Heightened Def Con from 0.000909317 to 0.000909318
Heightened Def Con from 0.000909353 to 0.000909355
Heightened Def Con from 0.000910351 to 0.000910353
Heightened Def Con from 0.000911317 to 0.000911318
Heightened Def Con from 0.000912319 to 0.000912319
Heightened Def Con from 0.000913265 to 0.000913265
Heightened Def Con from 0.000914088 to 0.000914088
Heightened Def Con from 0.000914263 to 0.000914264
Heightened Def Con from 0.000914318 to 0.000914319
Heightened Def Con from 0.000915088 to 0.000915089
Heightened Def Con from 0.000915353 to 0.000915355
Heightened Def Con from 0.000916262 to 0.000916263
Heightened Def Con from 0.000916317 to 0.000916318
Heightened Def Con from 0.00091635 to 0.000916352
Heightened Def Con from 0.000917262 to 0.000917263
Heightened Def Con from 0.000918319 to 0.000918319
Heightened Def Con from 0.000919264 to 0.000919264
Heightened Def Con from 0.000919319 to 0.00091932
Heightened Def Con from 0.000920088 to 0.000920089
Heightened Def Con from 0.000920316 to 0.000920317
Heightened Def Con from 0.000923088 to 0.000923088
Heightened Def Con from 0.000924263 to 0.000924264
Heightened Def Con from 0.000925317 to 0.000925318
Heightened Def Con from 0.000925353 to 0.000925355
Heightened Def Con from 0.000927087 to 0.000927088
Heightened Def Con from 0.000928318 to 0.000928319
Heightened Def Con from 0.000929263 to 0.000929264
Heightened Def Con from 0.000929317 to 0.000929318
Heightened Def Con from 0.00092935 to 0.000929352
Heightened Def Con from 0.000930262 to 0.000930263
Heightened Def Con from 0.000930353 to 0.000930355
Heightened Def Con from 0.000933317 to 0.000933318
Heightened Def Con from 0.000934263 to 0.000934264
Heightened Def Con from 0.000934316 to 0.000934317
Heightened Def Con from 0.000935319 to 0.000935319
Heightened Def Con from 0.000936263 to 0.000936264
Heightened Def Con from 0.000936316 to 0.000936317
Heightened Def Con from 0.000937353 to 0.000937355
Heightened Def Con from 0.000938262 to 0.000938263
Heightened Def Con from 0.000938318 to 0.000938319
Heightened Def Con from 0.000939318 to 0.000939319
Heightened Def Con from 0.000939351 to 0.000939353
Heightened Def Con from 0.000940262 to 0.000940262
Heightened Def Con from 0.000940318 to 0.000940319
Heightened Def Con from 0.000940351 to 0.000940353
Heightened Def Con from 0.000941317 to 0.000941317
Heightened Def Con from 0.000942317 to 0.000942318
Heightened Def Con from 0.000942353 to 0.000942354
Heightened Def Con from 0.000943319 to 0.00094332
Heightened Def Con from 0.000943353 to 0.000943355
Heightened Def Con from 0.000944263 to 0.000944264
Heightened Def Con from 0.000944317 to 0.000944318
Heightened Def Con from 0.000944353 to 0.000944355
Heightened Def Con from 0.000945087 to 0.000945088
Heightened Def Con from 0.000945318 to 0.000945319
Heightened Def Con from 0.000945351 to 0.000945353
Heightened Def Con from 0.000946317 to 0.000946318
Heightened Def Con from 0.000946353 to 0.000946355
Heightened Def Con from 0.000948347 to 0.000948349
Heightened Def Con from 0.000949088 to 0.000949089
Heightened Def Con from 0.000949318 to 0.000949319
Heightened Def Con from 0.000949351 to 0.000949353
Heightened Def Con from 0.000950087 to 0.000950088
Heightened Def Con from 0.000952319 to 0.00095232
Heightened Def Con from 0.000952354 to 0.000952356
Heightened Def Con from 0.000953264 to 0.000953265
Heightened Def Con from 0.000954089 to 0.00095409
Heightened Def Con from 0.000954318 to 0.000954318
Heightened Def Con from 0.000955319 to 0.00095532
Heightened Def Con from 0.000956317 to 0.000956318
Heightened Def Con from 0.000956351 to 0.000956353
Heightened Def Con from 0.000957318 to 0.000957319
Heightened Def Con from 0.000957351 to 0.000957353
Heightened Def Con from 0.000958318 to 0.000958319
Heightened Def Con from 0.000959264 to 0.000959264
Heightened Def Con from 0.000959318 to 0.000959319
Heightened Def Con from 0.000960317 to 0.000960318
Heightened Def Con from 0.000962264 to 0.000962265
Heightened Def Con from 0.000963263 to 0.000963264
Heightened Def Con from 0.000963318 to 0.000963319
Heightened Def Con from 0.000964318 to 0.000964318
Heightened Def Con from 0.00096435 to 0.000964352
Heightened Def Con from 0.000965262 to 0.000965263
Heightened Def Con from 0.000966263 to 0.000966264
Heightened Def Con from 0.000967088 to 0.000967089
Heightened Def Con from 0.000967318 to 0.000967319
Heightened Def Con from 0.000968264 to 0.000968264
Heightened Def Con from 0.000969262 to 0.000969262
Heightened Def Con from 0.000971317 to 0.000971317
Heightened Def Con from 0.000972087 to 0.000972088
Heightened Def Con from 0.000972262 to 0.000972262
Heightened Def Con from 0.000973352 to 0.000973354
Heightened Def Con from 0.000974317 to 0.000974318
Heightened Def Con from 0.000974353 to 0.000974355
Heightened Def Con from 0.000975088 to 0.000975088
Heightened Def Con from 0.000977354 to 0.000977356
Heightened Def Con from 0.000979318 to 0.000979319
Heightened Def Con from 0.000980262 to 0.000980262
Heightened Def Con from 0.000980318 to 0.000980319
Heightened Def Con from 0.000980353 to 0.000980355
Heightened Def Con from 0.000981262 to 0.000981263
Heightened Def Con from 0.000982348 to 0.00098235
Heightened Def Con from 0.000983318 to 0.000983319
Heightened Def Con from 0.000985263 to 0.000985264
Heightened Def Con from 0.000985317 to 0.000985318
Heightened Def Con from 0.000988262 to 0.000988262
Heightened Def Con from 0.000988318 to 0.000988319
Heightened Def Con from 0.000989263 to 0.000989263
Heightened Def Con from 0.000990317 to 0.000990318
Heightened Def Con from 0.000991263 to 0.000991263
Heightened Def Con from 0.000991319 to 0.000991325
Heightened Def Con from 0.000992087 to 0.000992088
Heightened Def Con from 0.000992264 to 0.000992265
Heightened Def Con from 0.000992316 to 0.000992317
Heightened Def Con from 0.000994088 to 0.000994089
Heightened Def Con from 0.000995318 to 0.000995319
Heightened Def Con from 0.000996263 to 0.000996274
Heightened Def Con from 0.000997088 to 0.000997089
Heightened Def Con from 0.000997353 to 0.000997355
Heightened Def Con from 0.000999262 to 0.000999262

Date: Tue Feb 20 10:17:52 2024
Total elapsed time: 79.720 seconds.

tnom = 27
temp = 27
method = modified trap
totiter = 5611208
traniter = 5611185
tranpoints = 1500787
accept = 1090269
rejected = 411752
matrix size = 201
fillins = 84
solver = Normal
Thread vector: 43.4/5.2[7] 3.7/1.9[7] 7.6/2.1[7] 0.5/1.3[1]  2592/500
Matrix Compiler1: 9.19 KB object code size  1.8/0.8/[0.4]
Matrix Compiler2: 14.93 KB object code size  0.9/1.4/[0.7]

