Circuit: * C:\C1 Repos\Technion_Project_A\LTSPICE\Simulations\Flyback V6.asc

Instance "m:u3:_gd_template:_lo_stage2:_lo_nmos": Length shorter than recommended for a level 1 MOSFET.
Instance "m:u3:_gd_template:_lo_stage2:_lo_pmos": Length shorter than recommended for a level 1 MOSFET.
Instance "m:u3:_gd_template:_lo_stage1:_lo_nmos": Length shorter than recommended for a level 1 MOSFET.
Instance "m:u3:_gd_template:_lo_stage1:_lo_pmos": Length shorter than recommended for a level 1 MOSFET.
Direct Newton iteration for .op point succeeded.
Heightened Def Con from 8.92161e-008 to 8.98411e-008
Heightened Def Con from 3.16393e-007 to 3.17018e-007
Heightened Def Con from 3.55941e-007 to 3.57816e-007
Heightened Def Con from 1.31889e-006 to 1.31952e-006
Heightened Def Con from 2.08745e-006 to 2.08808e-006
Heightened Def Con from 2.3169e-006 to 2.31752e-006
Heightened Def Con from 3.26206e-006 to 3.26268e-006
Heightened Def Con from 3.35066e-006 to 3.35254e-006
Heightened Def Con from 4.25892e-006 to 4.25955e-006
Heightened Def Con from 5.35199e-006 to 5.35387e-006
Heightened Def Con from 6.26412e-006 to 6.26475e-006
Heightened Def Con from 7.08944e-006 to 7.09032e-006
Heightened Def Con from 7.31854e-006 to 7.31941e-006
Heightened Def Con from 9.31705e-006 to 9.31792e-006
Heightened Def Con from 9.35108e-006 to 9.35296e-006
Heightened Def Con from 1.30881e-005 to 1.3089e-005
Heightened Def Con from 1.32622e-005 to 1.32628e-005
Heightened Def Con from 1.40891e-005 to 1.409e-005
Heightened Def Con from 1.73526e-005 to 1.73544e-005
Heightened Def Con from 1.80871e-005 to 1.8088e-005
Heightened Def Con from 1.90876e-005 to 1.90885e-005
Heightened Def Con from 1.92602e-005 to 1.92608e-005
Heightened Def Con from 1.93179e-005 to 1.93188e-005
Heightened Def Con from 2.02631e-005 to 2.02637e-005
Heightened Def Con from 2.03179e-005 to 2.03188e-005
Heightened Def Con from 2.03513e-005 to 2.03531e-005
Heightened Def Con from 2.13513e-005 to 2.13531e-005
Heightened Def Con from 2.23535e-005 to 2.23554e-005
Heightened Def Con from 2.33164e-005 to 2.33173e-005
Heightened Def Con from 2.43529e-005 to 2.43548e-005
Heightened Def Con from 2.52608e-005 to 2.52614e-005
Heightened Def Con from 2.63162e-005 to 2.63171e-005
Heightened Def Con from 2.73523e-005 to 2.73542e-005
Heightened Def Con from 2.83164e-005 to 2.83224e-005
Heightened Def Con from 2.83524e-005 to 2.83542e-005
Heightened Def Con from 2.92616e-005 to 2.92622e-005
Heightened Def Con from 3.03172e-005 to 3.03181e-005
Heightened Def Con from 3.13537e-005 to 3.13617e-005
Heightened Def Con from 3.23179e-005 to 3.23188e-005
Heightened Def Con from 3.32578e-005 to 3.32584e-005
Heightened Def Con from 3.60871e-005 to 3.6088e-005
Heightened Def Con from 3.6261e-005 to 3.62617e-005
Heightened Def Con from 3.72611e-005 to 3.72617e-005
Heightened Def Con from 3.73163e-005 to 3.73172e-005
Heightened Def Con from 3.82625e-005 to 3.82631e-005
Heightened Def Con from 3.83173e-005 to 3.83182e-005
Heightened Def Con from 3.93549e-005 to 3.93568e-005
Heightened Def Con from 4.03538e-005 to 4.03557e-005
Heightened Def Con from 4.22616e-005 to 4.22622e-005
Heightened Def Con from 4.23173e-005 to 4.23181e-005
Heightened Def Con from 4.23518e-005 to 4.23537e-005
Heightened Def Con from 4.33186e-005 to 4.33195e-005
Heightened Def Con from 4.40885e-005 to 4.40894e-005
Heightened Def Con from 4.4318e-005 to 4.43188e-005
Heightened Def Con from 4.63178e-005 to 4.63187e-005
Heightened Def Con from 4.70876e-005 to 4.70885e-005
Heightened Def Con from 4.72622e-005 to 4.72628e-005
Heightened Def Con from 4.8318e-005 to 4.83189e-005
Heightened Def Con from 4.9318e-005 to 4.93189e-005
Heightened Def Con from 5.03183e-005 to 5.03192e-005
Heightened Def Con from 5.23164e-005 to 5.23173e-005
Heightened Def Con from 5.3318e-005 to 5.33189e-005
Heightened Def Con from 5.43179e-005 to 5.43187e-005
Heightened Def Con from 5.43508e-005 to 5.43527e-005
Heightened Def Con from 5.53183e-005 to 5.53192e-005
Heightened Def Con from 5.73166e-005 to 5.73175e-005
Heightened Def Con from 5.83175e-005 to 5.83184e-005
Heightened Def Con from 5.83505e-005 to 5.83524e-005
Heightened Def Con from 5.92634e-005 to 5.92744e-005
Heightened Def Con from 6.02634e-005 to 6.0264e-005
Heightened Def Con from 6.03179e-005 to 6.03188e-005
Heightened Def Con from 6.03554e-005 to 6.03573e-005
Heightened Def Con from 6.12638e-005 to 6.12645e-005
Heightened Def Con from 6.13183e-005 to 6.13191e-005
Heightened Def Con from 6.23548e-005 to 6.23567e-005
Heightened Def Con from 6.32623e-005 to 6.32629e-005
Heightened Def Con from 6.33516e-005 to 6.33535e-005
Heightened Def Con from 6.42631e-005 to 6.42637e-005
Heightened Def Con from 6.53183e-005 to 6.53192e-005
Heightened Def Con from 6.62643e-005 to 6.6265e-005
Heightened Def Con from 6.63184e-005 to 6.63193e-005
Heightened Def Con from 6.73492e-005 to 6.73511e-005
Heightened Def Con from 6.83184e-005 to 6.83193e-005
Heightened Def Con from 6.93185e-005 to 6.93194e-005
Heightened Def Con from 6.93511e-005 to 6.93529e-005
Heightened Def Con from 7.13523e-005 to 7.13542e-005
Heightened Def Con from 7.20882e-005 to 7.2089e-005
Heightened Def Con from 7.23521e-005 to 7.2354e-005
Heightened Def Con from 7.32634e-005 to 7.3264e-005
Heightened Def Con from 7.42636e-005 to 7.42643e-005
Heightened Def Con from 7.43529e-005 to 7.43548e-005
Heightened Def Con from 7.53182e-005 to 7.5319e-005
Heightened Def Con from 7.63179e-005 to 7.63188e-005
Heightened Def Con from 7.70882e-005 to 7.7089e-005
Heightened Def Con from 7.90882e-005 to 7.9089e-005
Heightened Def Con from 7.93537e-005 to 7.93556e-005
Heightened Def Con from 8.0262e-005 to 8.02626e-005
Heightened Def Con from 8.03498e-005 to 8.03517e-005
Heightened Def Con from 8.10872e-005 to 8.1088e-005
Heightened Def Con from 8.12615e-005 to 8.12621e-005
Heightened Def Con from 8.33164e-005 to 8.33173e-005
Heightened Def Con from 8.43174e-005 to 8.43182e-005
Heightened Def Con from 8.53501e-005 to 8.5352e-005
Heightened Def Con from 8.8318e-005 to 8.83189e-005
Heightened Def Con from 8.83535e-005 to 8.83554e-005
Heightened Def Con from 8.93188e-005 to 8.93248e-005
Heightened Def Con from 9.02622e-005 to 9.02628e-005
Heightened Def Con from 9.32634e-005 to 9.32641e-005
Heightened Def Con from 9.40895e-005 to 9.40903e-005
Heightened Def Con from 9.53162e-005 to 9.53171e-005
Heightened Def Con from 9.63182e-005 to 9.63191e-005
Heightened Def Con from 9.70882e-005 to 9.7089e-005
Heightened Def Con from 9.72616e-005 to 9.72622e-005
Heightened Def Con from 9.92628e-005 to 9.92634e-005
Heightened Def Con from 9.93528e-005 to 9.93546e-005
Heightened Def Con from 0.000100316 to 0.000100317
Heightened Def Con from 0.000105318 to 0.000105319
Heightened Def Con from 0.000105352 to 0.000105354
Heightened Def Con from 0.000106262 to 0.000106262
Heightened Def Con from 0.000108318 to 0.000108319
Heightened Def Con from 0.000109317 to 0.000109318
Heightened Def Con from 0.000110263 to 0.000110264
Heightened Def Con from 0.000110318 to 0.000110319
Heightened Def Con from 0.000110353 to 0.000110355
Heightened Def Con from 0.000111264 to 0.000111265
Heightened Def Con from 0.000111318 to 0.000111319
Heightened Def Con from 0.000113318 to 0.000113319
Heightened Def Con from 0.000114318 to 0.000114319
Heightened Def Con from 0.000116353 to 0.000116354
Heightened Def Con from 0.000117319 to 0.00011732
Heightened Def Con from 0.000118263 to 0.000118264
Heightened Def Con from 0.000118316 to 0.000118317
Heightened Def Con from 0.000119317 to 0.000119318
Heightened Def Con from 0.000120088 to 0.000120089
Heightened Def Con from 0.000120263 to 0.000120264
Heightened Def Con from 0.000122318 to 0.000122319
Heightened Def Con from 0.000123263 to 0.000123264
Heightened Def Con from 0.000123319 to 0.00012332
Heightened Def Con from 0.000124263 to 0.000124263
Heightened Def Con from 0.000124319 to 0.00012432
Heightened Def Con from 0.000125319 to 0.000125319
Heightened Def Con from 0.000125351 to 0.000125353
Heightened Def Con from 0.000126317 to 0.000126318
Heightened Def Con from 0.000126352 to 0.000126354
Heightened Def Con from 0.000127317 to 0.000127318
Heightened Def Con from 0.000128347 to 0.000128349
Heightened Def Con from 0.00012935 to 0.000129352
Heightened Def Con from 0.000130262 to 0.000130263
Heightened Def Con from 0.000130317 to 0.000130318
Heightened Def Con from 0.000130352 to 0.000130354
Heightened Def Con from 0.000131263 to 0.000131264
Heightened Def Con from 0.000131319 to 0.00013132
Heightened Def Con from 0.000134318 to 0.000134319
Heightened Def Con from 0.000135352 to 0.000135354
Heightened Def Con from 0.000136317 to 0.000136318
Heightened Def Con from 0.000136349 to 0.000136351
Heightened Def Con from 0.000137317 to 0.000137318
Heightened Def Con from 0.000138352 to 0.000138353
Heightened Def Con from 0.000139318 to 0.000139318
Heightened Def Con from 0.000140355 to 0.000140357
Heightened Def Con from 0.000142318 to 0.000142319
Heightened Def Con from 0.000143317 to 0.000143318
Heightened Def Con from 0.000146352 to 0.000146354
Heightened Def Con from 0.000147088 to 0.000147088
Heightened Def Con from 0.000147262 to 0.000147263
Heightened Def Con from 0.000147317 to 0.000147318
Heightened Def Con from 0.000148318 to 0.000148319
Heightened Def Con from 0.000149264 to 0.000149265
Heightened Def Con from 0.000149317 to 0.000149318
Heightened Def Con from 0.000151317 to 0.000151318
Heightened Def Con from 0.000152263 to 0.000152264
Heightened Def Con from 0.000153318 to 0.000153319
Heightened Def Con from 0.000155355 to 0.000155357
Heightened Def Con from 0.000157087 to 0.000157087
Heightened Def Con from 0.000157317 to 0.000157318
Heightened Def Con from 0.000158263 to 0.000158263
Heightened Def Con from 0.000158353 to 0.000158355
Heightened Def Con from 0.000159352 to 0.000159354
Heightened Def Con from 0.000160354 to 0.000160356
Heightened Def Con from 0.000161262 to 0.000161263
Heightened Def Con from 0.000161318 to 0.000161319
Heightened Def Con from 0.000162353 to 0.000162355
Heightened Def Con from 0.000163264 to 0.000163264
Heightened Def Con from 0.000163317 to 0.000163318
Heightened Def Con from 0.000164317 to 0.000164318
Heightened Def Con from 0.000165088 to 0.000165089
Heightened Def Con from 0.000166318 to 0.000166319
Heightened Def Con from 0.000167318 to 0.000167319
Heightened Def Con from 0.000168318 to 0.000168319
Heightened Def Con from 0.000168353 to 0.000168355
Heightened Def Con from 0.000170351 to 0.000170353
Heightened Def Con from 0.000171316 to 0.000171317
Heightened Def Con from 0.000171352 to 0.000171354
Heightened Def Con from 0.000172351 to 0.000172353
Heightened Def Con from 0.000173087 to 0.000173088
Heightened Def Con from 0.000173264 to 0.000173265
Heightened Def Con from 0.000174265 to 0.000174266
Heightened Def Con from 0.000175265 to 0.000175265
Heightened Def Con from 0.000176262 to 0.000176263
Heightened Def Con from 0.000176318 to 0.000176319
Heightened Def Con from 0.000177319 to 0.000177319
Heightened Def Con from 0.000177346 to 0.000177348
Heightened Def Con from 0.000178087 to 0.000178088
Heightened Def Con from 0.000179088 to 0.000179089
Heightened Def Con from 0.000180088 to 0.000180089
Heightened Def Con from 0.000180316 to 0.000180317
Heightened Def Con from 0.000180352 to 0.000180354
Heightened Def Con from 0.000181088 to 0.000181089
Heightened Def Con from 0.000181317 to 0.000181318
Heightened Def Con from 0.000182264 to 0.000182264
Heightened Def Con from 0.000182318 to 0.000182319
Heightened Def Con from 0.000183088 to 0.000183089
Heightened Def Con from 0.000183319 to 0.00018332
Heightened Def Con from 0.000183349 to 0.000183351
Heightened Def Con from 0.000184354 to 0.000184356
Heightened Def Con from 0.000185264 to 0.000185264
Heightened Def Con from 0.000185318 to 0.000185318
Heightened Def Con from 0.000185353 to 0.000185355
Heightened Def Con from 0.000186317 to 0.000186317
Heightened Def Con from 0.000186353 to 0.000186354
Heightened Def Con from 0.000187317 to 0.000187318
Heightened Def Con from 0.000189317 to 0.000189318
Heightened Def Con from 0.000189353 to 0.000189355
Heightened Def Con from 0.000190264 to 0.000190265
Heightened Def Con from 0.000191353 to 0.000191355
Heightened Def Con from 0.000194353 to 0.000194355
Heightened Def Con from 0.000195317 to 0.000195317
Heightened Def Con from 0.000196089 to 0.00019609
Heightened Def Con from 0.000196354 to 0.000196356
Heightened Def Con from 0.000197317 to 0.000197318
Heightened Def Con from 0.000197352 to 0.000197354
Heightened Def Con from 0.000198265 to 0.000198276
Heightened Def Con from 0.000198315 to 0.000198316
Heightened Def Con from 0.000199318 to 0.000199319
Heightened Def Con from 0.000201265 to 0.000201266
Heightened Def Con from 0.000201318 to 0.000201319
Heightened Def Con from 0.000202263 to 0.000202264
Heightened Def Con from 0.000202349 to 0.000202351
Heightened Def Con from 0.000204318 to 0.000204319
Heightened Def Con from 0.000205264 to 0.000205264
Heightened Def Con from 0.000205317 to 0.000205318
Heightened Def Con from 0.000206317 to 0.000206317
Heightened Def Con from 0.000207316 to 0.000207317
Heightened Def Con from 0.000208263 to 0.000208264
Heightened Def Con from 0.000208318 to 0.000208319
Heightened Def Con from 0.000208354 to 0.000208355
Heightened Def Con from 0.000209353 to 0.000209355
Heightened Def Con from 0.000211087 to 0.000211088
Heightened Def Con from 0.000211319 to 0.000211319
Heightened Def Con from 0.000212318 to 0.000212319
Heightened Def Con from 0.000212348 to 0.00021235
Heightened Def Con from 0.000213264 to 0.000213264
Heightened Def Con from 0.000213319 to 0.000213319
Heightened Def Con from 0.00021335 to 0.000213352
Heightened Def Con from 0.000214089 to 0.00021409
Heightened Def Con from 0.000214262 to 0.000214263
Heightened Def Con from 0.000215319 to 0.00021532
Heightened Def Con from 0.00021826 to 0.000218261
Heightened Def Con from 0.000218318 to 0.000218319
Heightened Def Con from 0.00021835 to 0.000218352
Heightened Def Con from 0.000219318 to 0.000219319
Heightened Def Con from 0.000219351 to 0.000219353
Heightened Def Con from 0.000220262 to 0.000220262
Heightened Def Con from 0.000220318 to 0.000220319
Heightened Def Con from 0.000221319 to 0.000221319
Heightened Def Con from 0.000222262 to 0.000222262
Heightened Def Con from 0.000223088 to 0.000223089
Heightened Def Con from 0.000223318 to 0.000223319
Heightened Def Con from 0.000223353 to 0.000223355
Heightened Def Con from 0.000226319 to 0.00022632
Heightened Def Con from 0.000227264 to 0.000227264
Heightened Def Con from 0.000227318 to 0.000227318
Heightened Def Con from 0.000227353 to 0.000227355
Heightened Def Con from 0.000229259 to 0.00022926
Heightened Def Con from 0.000229351 to 0.000229353
Heightened Def Con from 0.000230318 to 0.000230319
Heightened Def Con from 0.00023035 to 0.000230352
Heightened Def Con from 0.000232316 to 0.000232317
Heightened Def Con from 0.000233261 to 0.000233262
Heightened Def Con from 0.000233352 to 0.000233354
Heightened Def Con from 0.000234264 to 0.000234265
Heightened Def Con from 0.000235087 to 0.000235088
Heightened Def Con from 0.00023535 to 0.000235352
Heightened Def Con from 0.000236088 to 0.000236089
Heightened Def Con from 0.000237088 to 0.000237089
Heightened Def Con from 0.000237263 to 0.000237263
Heightened Def Con from 0.000237317 to 0.000237318
Heightened Def Con from 0.000239088 to 0.000239089
Heightened Def Con from 0.000239262 to 0.000239263
Heightened Def Con from 0.000239351 to 0.000239352
Heightened Def Con from 0.000240087 to 0.000240088
Heightened Def Con from 0.000240319 to 0.000240319
Heightened Def Con from 0.000240351 to 0.000240353
Heightened Def Con from 0.000241263 to 0.000241264
Heightened Def Con from 0.000242263 to 0.000242264
Heightened Def Con from 0.000242352 to 0.000242354
Heightened Def Con from 0.000243352 to 0.000243354
Heightened Def Con from 0.000244263 to 0.000244263
Heightened Def Con from 0.000244352 to 0.00024436
Heightened Def Con from 0.000245262 to 0.000245263
Heightened Def Con from 0.000245318 to 0.000245319
Heightened Def Con from 0.000247088 to 0.000247089
Heightened Def Con from 0.000247319 to 0.00024732
Heightened Def Con from 0.000248087 to 0.000248088
Heightened Def Con from 0.000249088 to 0.000249089
Heightened Def Con from 0.000249317 to 0.000249318
Heightened Def Con from 0.000250088 to 0.000250089
Heightened Def Con from 0.000250262 to 0.000250262
Heightened Def Con from 0.000250354 to 0.000250356
Heightened Def Con from 0.000251088 to 0.000251089
Heightened Def Con from 0.000251318 to 0.000251319
Heightened Def Con from 0.000252262 to 0.000252262
Heightened Def Con from 0.00025326 to 0.000253261
Heightened Def Con from 0.000253348 to 0.00025335
Heightened Def Con from 0.000254318 to 0.000254319
Heightened Def Con from 0.000254353 to 0.000254355
Heightened Def Con from 0.000255316 to 0.000255317
Heightened Def Con from 0.000257264 to 0.000257264
Heightened Def Con from 0.000258318 to 0.000258319
Heightened Def Con from 0.000259352 to 0.000259354
Heightened Def Con from 0.000261352 to 0.000261354
Heightened Def Con from 0.000262316 to 0.000262317
Heightened Def Con from 0.000264318 to 0.000264319
Heightened Def Con from 0.000265087 to 0.000265088
Heightened Def Con from 0.000265263 to 0.000265264
Heightened Def Con from 0.000267262 to 0.000267263
Heightened Def Con from 0.000268087 to 0.000268088
Heightened Def Con from 0.000268319 to 0.00026832
Heightened Def Con from 0.000268351 to 0.000268353
Heightened Def Con from 0.000269264 to 0.000269264
Heightened Def Con from 0.000269318 to 0.000269319
Heightened Def Con from 0.000271261 to 0.000271261
Heightened Def Con from 0.000271319 to 0.00027132
Heightened Def Con from 0.000271351 to 0.000271353
Heightened Def Con from 0.000272263 to 0.000272264
Heightened Def Con from 0.000273262 to 0.000273262
Heightened Def Con from 0.000273317 to 0.000273317
Heightened Def Con from 0.000274318 to 0.000274319
Heightened Def Con from 0.000275318 to 0.000275319
Heightened Def Con from 0.000276318 to 0.000276319
Heightened Def Con from 0.000276353 to 0.000276355
Heightened Def Con from 0.000277089 to 0.00027709
Heightened Def Con from 0.000278318 to 0.000278319
Heightened Def Con from 0.000278353 to 0.000278355
Heightened Def Con from 0.000279316 to 0.000279317
Heightened Def Con from 0.000280261 to 0.000280272
Heightened Def Con from 0.000280316 to 0.000280316
Heightened Def Con from 0.000281318 to 0.000281319
Heightened Def Con from 0.000281353 to 0.000281355
Heightened Def Con from 0.000282088 to 0.000282089
Heightened Def Con from 0.000282263 to 0.000282264
Heightened Def Con from 0.000282318 to 0.000282319
Heightened Def Con from 0.000283318 to 0.000283319
Heightened Def Con from 0.000284087 to 0.000284088
Heightened Def Con from 0.000284317 to 0.000284317
Heightened Def Con from 0.000285349 to 0.000285351
Heightened Def Con from 0.000286317 to 0.000286318
Heightened Def Con from 0.000287263 to 0.000287264
Heightened Def Con from 0.000287354 to 0.000287356
Heightened Def Con from 0.000288316 to 0.000288317
Heightened Def Con from 0.000288352 to 0.000288354
Heightened Def Con from 0.000289088 to 0.000289089
Heightened Def Con from 0.000290088 to 0.000290089
Heightened Def Con from 0.000293316 to 0.000293317
Heightened Def Con from 0.000294088 to 0.000294089
Heightened Def Con from 0.000294262 to 0.000294263
Heightened Def Con from 0.000295087 to 0.000295088
Heightened Def Con from 0.000295353 to 0.000295355
Heightened Def Con from 0.000296263 to 0.000296264
Heightened Def Con from 0.000297317 to 0.000297318
Heightened Def Con from 0.00029735 to 0.000297352
Heightened Def Con from 0.000298088 to 0.000298089
Heightened Def Con from 0.000298318 to 0.000298319
Heightened Def Con from 0.000300317 to 0.000300318
Heightened Def Con from 0.000301263 to 0.000301264
Heightened Def Con from 0.000302262 to 0.000302263
Heightened Def Con from 0.000303089 to 0.00030309
Heightened Def Con from 0.000303317 to 0.000303318
Heightened Def Con from 0.000304088 to 0.000304089
Heightened Def Con from 0.000304318 to 0.000304319
Heightened Def Con from 0.000306262 to 0.000306262
Heightened Def Con from 0.000307088 to 0.000307089
Heightened Def Con from 0.000307319 to 0.00030732
Heightened Def Con from 0.000308348 to 0.00030835
Heightened Def Con from 0.000309354 to 0.000309356
Heightened Def Con from 0.000310319 to 0.00031032
Heightened Def Con from 0.000311318 to 0.000311319
Heightened Def Con from 0.00031135 to 0.000311352
Heightened Def Con from 0.000312262 to 0.000312262
Heightened Def Con from 0.000313262 to 0.000313263
Heightened Def Con from 0.000315262 to 0.000315262
Heightened Def Con from 0.000315319 to 0.00031532
Heightened Def Con from 0.000317261 to 0.000317262
Heightened Def Con from 0.000318088 to 0.000318089
Heightened Def Con from 0.000319263 to 0.000319263
Heightened Def Con from 0.000319318 to 0.000319319
Heightened Def Con from 0.000319354 to 0.000319356
Heightened Def Con from 0.000321317 to 0.000321318
Heightened Def Con from 0.000321353 to 0.000321355
Heightened Def Con from 0.000322318 to 0.000322319
Heightened Def Con from 0.000323087 to 0.000323088
Heightened Def Con from 0.000323265 to 0.000323265
Heightened Def Con from 0.000325263 to 0.000325264
Heightened Def Con from 0.000325319 to 0.00032532
Heightened Def Con from 0.000326088 to 0.000326089
Heightened Def Con from 0.000326351 to 0.000326353
Heightened Def Con from 0.000327088 to 0.000327089
Heightened Def Con from 0.000327353 to 0.000327355
Heightened Def Con from 0.000328262 to 0.000328262
Heightened Def Con from 0.000328318 to 0.000328319
Heightened Def Con from 0.000328351 to 0.000328353
Heightened Def Con from 0.000329318 to 0.000329319
Heightened Def Con from 0.000330263 to 0.000330263
Heightened Def Con from 0.000330318 to 0.000330319
Heightened Def Con from 0.000331354 to 0.000331356
Heightened Def Con from 0.000332262 to 0.000332263
Heightened Def Con from 0.000332317 to 0.000332317
Heightened Def Con from 0.000333316 to 0.000333317
Heightened Def Con from 0.000334317 to 0.000334318
Heightened Def Con from 0.000335349 to 0.000335357
Heightened Def Con from 0.000337263 to 0.000337264
Heightened Def Con from 0.000338263 to 0.000338263
Heightened Def Con from 0.000339316 to 0.000339317
Heightened Def Con from 0.000340261 to 0.000340261
Heightened Def Con from 0.000340319 to 0.00034032
Heightened Def Con from 0.000341317 to 0.000341317
Heightened Def Con from 0.000342352 to 0.000342354
Heightened Def Con from 0.000343318 to 0.000343318
Heightened Def Con from 0.000344088 to 0.000344089
Heightened Def Con from 0.000344352 to 0.000344354
Heightened Def Con from 0.00034509 to 0.000345091
Heightened Def Con from 0.000345317 to 0.000345318
Heightened Def Con from 0.000346316 to 0.000346317
Heightened Def Con from 0.000347317 to 0.000347318
Heightened Def Con from 0.000348263 to 0.000348264
Heightened Def Con from 0.000350262 to 0.000350263
Heightened Def Con from 0.000351262 to 0.000351263
Heightened Def Con from 0.000351352 to 0.000351354
Heightened Def Con from 0.000352351 to 0.000352353
Heightened Def Con from 0.000353318 to 0.000353319
Heightened Def Con from 0.000353351 to 0.000353353
Heightened Def Con from 0.000354318 to 0.000354319
Heightened Def Con from 0.000354353 to 0.000354355
Heightened Def Con from 0.000355317 to 0.000355318
Heightened Def Con from 0.000356262 to 0.000356263
Heightened Def Con from 0.000356352 to 0.000356354
Heightened Def Con from 0.000357261 to 0.000357272
Heightened Def Con from 0.000357318 to 0.000357319
Heightened Def Con from 0.000358351 to 0.000358353
Heightened Def Con from 0.000359351 to 0.000359353
Heightened Def Con from 0.000360262 to 0.000360263
Heightened Def Con from 0.000360317 to 0.000360318
Heightened Def Con from 0.00036126 to 0.000361261
Heightened Def Con from 0.000361319 to 0.00036132
Heightened Def Con from 0.000362088 to 0.000362089
Heightened Def Con from 0.000362318 to 0.000362319
Heightened Def Con from 0.000363318 to 0.000363319
Heightened Def Con from 0.000364317 to 0.000364318
Heightened Def Con from 0.000365355 to 0.000365356
Heightened Def Con from 0.000366317 to 0.000366318
Heightened Def Con from 0.000367263 to 0.000367263
Heightened Def Con from 0.000368317 to 0.000368318
Heightened Def Con from 0.000369319 to 0.000369319
Heightened Def Con from 0.000370088 to 0.000370089
Heightened Def Con from 0.000371316 to 0.000371317
Heightened Def Con from 0.000373264 to 0.000373264
Heightened Def Con from 0.000373355 to 0.000373356
Heightened Def Con from 0.000374354 to 0.000374356
Heightened Def Con from 0.000375319 to 0.000375319
Heightened Def Con from 0.000377319 to 0.000377319
Heightened Def Con from 0.000378319 to 0.00037832
Heightened Def Con from 0.000379318 to 0.000379319
Heightened Def Con from 0.000379353 to 0.000379355
Heightened Def Con from 0.000380262 to 0.000380262
Heightened Def Con from 0.000380353 to 0.000380355
Heightened Def Con from 0.000382088 to 0.000382089
Heightened Def Con from 0.000383318 to 0.000383318
Heightened Def Con from 0.00038335 to 0.000383352
Heightened Def Con from 0.000384088 to 0.000384089
Heightened Def Con from 0.000384351 to 0.000384353
Heightened Def Con from 0.000386318 to 0.000386324
Heightened Def Con from 0.000386352 to 0.000386353
Heightened Def Con from 0.000387088 to 0.000387088
Heightened Def Con from 0.000387352 to 0.000387354
Heightened Def Con from 0.000388263 to 0.000388263
Heightened Def Con from 0.000388348 to 0.00038835
Heightened Def Con from 0.000389352 to 0.000389354
Heightened Def Con from 0.000390319 to 0.000390319
Heightened Def Con from 0.000390351 to 0.000390353
Heightened Def Con from 0.000393262 to 0.000393263
Heightened Def Con from 0.000393319 to 0.000393319
Heightened Def Con from 0.000395087 to 0.000395088
Heightened Def Con from 0.000395319 to 0.00039532
Heightened Def Con from 0.000396318 to 0.000396319
Heightened Def Con from 0.000396351 to 0.000396353
Heightened Def Con from 0.000397318 to 0.000397319
Heightened Def Con from 0.000399352 to 0.000399354
Heightened Def Con from 0.000400262 to 0.000400263
Heightened Def Con from 0.000400351 to 0.000400353
Heightened Def Con from 0.000401316 to 0.000401317
Heightened Def Con from 0.000402352 to 0.000402354
Heightened Def Con from 0.000403262 to 0.000403263
Heightened Def Con from 0.000403351 to 0.000403352
Heightened Def Con from 0.000404317 to 0.000404318
Heightened Def Con from 0.000405349 to 0.000405351
Heightened Def Con from 0.000406317 to 0.000406318
Heightened Def Con from 0.000406353 to 0.000406355
Heightened Def Con from 0.000407088 to 0.000407089
Heightened Def Con from 0.000407319 to 0.00040732
Heightened Def Con from 0.000410318 to 0.000410319
Heightened Def Con from 0.000410351 to 0.000410353
Heightened Def Con from 0.000412317 to 0.000412318
Heightened Def Con from 0.000413262 to 0.000413262
Heightened Def Con from 0.000413319 to 0.000413319
Heightened Def Con from 0.000414317 to 0.000414318
Heightened Def Con from 0.000416352 to 0.000416354
Heightened Def Con from 0.000417089 to 0.000417089
Heightened Def Con from 0.000417262 to 0.000417263
Heightened Def Con from 0.000417319 to 0.00041732
Heightened Def Con from 0.000417349 to 0.000417351
Heightened Def Con from 0.000418263 to 0.000418263
Heightened Def Con from 0.000419353 to 0.000419354
Heightened Def Con from 0.000421088 to 0.000421089
Heightened Def Con from 0.000421262 to 0.000421262
Heightened Def Con from 0.000421319 to 0.00042132
Heightened Def Con from 0.000422087 to 0.000422088
Heightened Def Con from 0.000422263 to 0.000422264
Heightened Def Con from 0.000422317 to 0.000422318
Heightened Def Con from 0.000422352 to 0.000422354
Heightened Def Con from 0.000423088 to 0.000423089
Heightened Def Con from 0.000424263 to 0.000424263
Heightened Def Con from 0.000424317 to 0.000424318
Heightened Def Con from 0.00042435 to 0.000424352
Heightened Def Con from 0.000425088 to 0.000425089
Heightened Def Con from 0.000426263 to 0.000426264
Heightened Def Con from 0.000426317 to 0.000426318
Heightened Def Con from 0.000428318 to 0.000428324
Heightened Def Con from 0.000428351 to 0.000428353
Heightened Def Con from 0.000431354 to 0.000431356
Heightened Def Con from 0.000432087 to 0.000432088
Heightened Def Con from 0.000432317 to 0.000432318
Heightened Def Con from 0.000433088 to 0.000433089
Heightened Def Con from 0.000433351 to 0.000433359
Heightened Def Con from 0.000434349 to 0.000434351
Heightened Def Con from 0.000435263 to 0.000435264
Heightened Def Con from 0.000435316 to 0.000435317
Heightened Def Con from 0.000436262 to 0.000436263
Heightened Def Con from 0.000437349 to 0.000437351
Heightened Def Con from 0.000438088 to 0.000438089
Heightened Def Con from 0.000438317 to 0.000438317
Heightened Def Con from 0.000438353 to 0.000438354
Heightened Def Con from 0.000439318 to 0.000439319
Heightened Def Con from 0.000441262 to 0.000441262
Heightened Def Con from 0.000441316 to 0.000441317
Heightened Def Con from 0.000442318 to 0.000442319
Heightened Def Con from 0.000442351 to 0.000442353
Heightened Def Con from 0.000443351 to 0.000443353
Heightened Def Con from 0.000444318 to 0.000444319
Heightened Def Con from 0.000445318 to 0.000445319
Heightened Def Con from 0.000446319 to 0.00044632
Heightened Def Con from 0.000448318 to 0.000448319
Heightened Def Con from 0.000449353 to 0.000449355
Heightened Def Con from 0.000450263 to 0.000450263
Heightened Def Con from 0.000450318 to 0.000450319
Heightened Def Con from 0.00045035 to 0.000450352
Heightened Def Con from 0.000451355 to 0.000451357
Heightened Def Con from 0.000452319 to 0.00045232
Heightened Def Con from 0.000453088 to 0.000453089
Heightened Def Con from 0.000454319 to 0.00045432
Heightened Def Con from 0.000455317 to 0.000455318
Heightened Def Con from 0.000456263 to 0.000456264
Heightened Def Con from 0.000456317 to 0.000456318
Heightened Def Con from 0.000456353 to 0.000456355
Heightened Def Con from 0.000457088 to 0.000457089
Heightened Def Con from 0.000458319 to 0.00045832
Heightened Def Con from 0.000459262 to 0.000459263
Heightened Def Con from 0.000459317 to 0.000459318
Heightened Def Con from 0.00046035 to 0.000460352
Heightened Def Con from 0.000461317 to 0.000461318
Heightened Def Con from 0.000463087 to 0.000463088
Heightened Def Con from 0.000463348 to 0.00046335
Heightened Def Con from 0.000464318 to 0.000464319
Heightened Def Con from 0.000465088 to 0.000465088
Heightened Def Con from 0.000466317 to 0.000466317
Heightened Def Con from 0.000467262 to 0.000467263
Heightened Def Con from 0.000468353 to 0.000468355
Heightened Def Con from 0.000469318 to 0.000469319
Heightened Def Con from 0.000469354 to 0.000469356
Heightened Def Con from 0.000470317 to 0.000470318
Heightened Def Con from 0.000470352 to 0.000470353
Heightened Def Con from 0.000471264 to 0.000471265
Heightened Def Con from 0.000471318 to 0.000471319
Heightened Def Con from 0.000472088 to 0.000472089
Heightened Def Con from 0.000472318 to 0.000472318
Heightened Def Con from 0.000473263 to 0.000473264
Heightened Def Con from 0.000473352 to 0.000473354
Heightened Def Con from 0.000474088 to 0.000474089
Heightened Def Con from 0.000476318 to 0.000476318
Heightened Def Con from 0.000476354 to 0.000476355
Heightened Def Con from 0.000478318 to 0.000478319
Heightened Def Con from 0.000479317 to 0.000479318
Heightened Def Con from 0.00047935 to 0.000479352
Heightened Def Con from 0.000482088 to 0.000482089
Heightened Def Con from 0.000482263 to 0.000482264
Heightened Def Con from 0.000483262 to 0.000483263
Heightened Def Con from 0.000484318 to 0.000484319
Heightened Def Con from 0.000484351 to 0.000484353
Heightened Def Con from 0.000486088 to 0.000486089
Heightened Def Con from 0.000486262 to 0.000486263
Heightened Def Con from 0.000486317 to 0.000486318
Heightened Def Con from 0.000488261 to 0.000488261
Heightened Def Con from 0.000488317 to 0.000488318
Heightened Def Con from 0.000488353 to 0.000488355
Heightened Def Con from 0.000489317 to 0.000489317
Heightened Def Con from 0.000491318 to 0.000491319
Heightened Def Con from 0.000493319 to 0.000493319
Heightened Def Con from 0.000494088 to 0.000494089
Heightened Def Con from 0.000494263 to 0.000494263
Heightened Def Con from 0.000496317 to 0.000496318
Heightened Def Con from 0.000496353 to 0.000496355
Heightened Def Con from 0.000497353 to 0.000497355
Heightened Def Con from 0.000498263 to 0.000498264
Heightened Def Con from 0.000498319 to 0.00049832
Heightened Def Con from 0.000498349 to 0.000498351
Heightened Def Con from 0.000499318 to 0.000499319
Heightened Def Con from 0.000500317 to 0.000500318
Heightened Def Con from 0.000501088 to 0.000501089
Heightened Def Con from 0.000501355 to 0.000501357
Heightened Def Con from 0.000503319 to 0.00050332
Heightened Def Con from 0.000504317 to 0.000504318
Heightened Def Con from 0.000506351 to 0.000506352
Heightened Def Con from 0.000509317 to 0.000509323
Heightened Def Con from 0.000509351 to 0.000509353
Heightened Def Con from 0.000510088 to 0.000510088
Heightened Def Con from 0.000510262 to 0.000510262
Heightened Def Con from 0.000510318 to 0.000510319
Heightened Def Con from 0.000511088 to 0.000511089
Heightened Def Con from 0.000511263 to 0.000511263
Heightened Def Con from 0.000511352 to 0.000511354
Heightened Def Con from 0.000512263 to 0.000512263
Heightened Def Con from 0.000512317 to 0.000512318
Heightened Def Con from 0.000514261 to 0.000514262
Heightened Def Con from 0.000514318 to 0.000514319
Heightened Def Con from 0.000514346 to 0.000514348
Heightened Def Con from 0.000515089 to 0.00051509
Heightened Def Con from 0.000515317 to 0.000515318
Heightened Def Con from 0.00051535 to 0.000515352
Heightened Def Con from 0.000516348 to 0.00051635
Heightened Def Con from 0.000517088 to 0.000517089
Heightened Def Con from 0.000518353 to 0.000518355
Heightened Def Con from 0.000519088 to 0.000519089
Heightened Def Con from 0.000519353 to 0.000519355
Heightened Def Con from 0.000520262 to 0.000520263
Heightened Def Con from 0.000520318 to 0.000520319
Heightened Def Con from 0.000521264 to 0.000521265
Heightened Def Con from 0.000521319 to 0.00052132
Heightened Def Con from 0.000521349 to 0.000521351
Heightened Def Con from 0.000524352 to 0.000524354
Heightened Def Con from 0.000525318 to 0.000525319
Heightened Def Con from 0.000526317 to 0.000526318
Heightened Def Con from 0.000528351 to 0.000528353
Heightened Def Con from 0.000529352 to 0.000529354
Heightened Def Con from 0.000530262 to 0.000530263
Heightened Def Con from 0.000530317 to 0.000530318
Heightened Def Con from 0.000531263 to 0.000531263
Heightened Def Con from 0.000531317 to 0.000531323
Heightened Def Con from 0.000531351 to 0.000531353
Heightened Def Con from 0.000532348 to 0.00053235
Heightened Def Con from 0.000533087 to 0.000533088
Heightened Def Con from 0.000534088 to 0.000534089
Heightened Def Con from 0.000534262 to 0.000534263
Heightened Def Con from 0.000534316 to 0.000534317
Heightened Def Con from 0.000535088 to 0.000535089
Heightened Def Con from 0.000535318 to 0.000535319
Heightened Def Con from 0.000537319 to 0.000537319
Heightened Def Con from 0.000537351 to 0.000537353
Heightened Def Con from 0.000538263 to 0.000538264
Heightened Def Con from 0.000538317 to 0.000538318
Heightened Def Con from 0.000538348 to 0.00053835
Heightened Def Con from 0.000539262 to 0.000539263
Heightened Def Con from 0.000540317 to 0.000540317
Heightened Def Con from 0.000541263 to 0.000541264
Heightened Def Con from 0.000541351 to 0.000541353
Heightened Def Con from 0.000542262 to 0.000542262
Heightened Def Con from 0.000543318 to 0.000543319
Heightened Def Con from 0.00054335 to 0.000543352
Heightened Def Con from 0.000544316 to 0.000544317
Heightened Def Con from 0.000545088 to 0.000545089
Heightened Def Con from 0.000545319 to 0.00054532
Heightened Def Con from 0.000546088 to 0.000546089
Heightened Def Con from 0.000546318 to 0.000546319
Heightened Def Con from 0.000547087 to 0.000547088
Heightened Def Con from 0.000547317 to 0.000547318
Heightened Def Con from 0.000547353 to 0.000547355
Heightened Def Con from 0.000550318 to 0.000550319
Heightened Def Con from 0.00055209 to 0.00055209
Heightened Def Con from 0.000553264 to 0.000553264
Heightened Def Con from 0.000554263 to 0.000554264
Heightened Def Con from 0.000556317 to 0.000556318
Heightened Def Con from 0.000557317 to 0.000557318
Heightened Def Con from 0.000558317 to 0.000558318
Heightened Def Con from 0.000559318 to 0.000559319
Heightened Def Con from 0.000561318 to 0.000561319
Heightened Def Con from 0.000562088 to 0.000562089
Heightened Def Con from 0.000562262 to 0.000562262
Heightened Def Con from 0.000562318 to 0.000562319
Heightened Def Con from 0.000562354 to 0.000562356
Heightened Def Con from 0.000563354 to 0.000563356
Heightened Def Con from 0.000564262 to 0.000564262
Heightened Def Con from 0.000565088 to 0.000565089
Heightened Def Con from 0.000565319 to 0.00056532
Heightened Def Con from 0.000566088 to 0.000566089
Heightened Def Con from 0.000566263 to 0.000566263
Heightened Def Con from 0.000566318 to 0.000566319
Heightened Def Con from 0.000567319 to 0.00056732
Heightened Def Con from 0.000569087 to 0.000569088
Heightened Def Con from 0.000569317 to 0.000569318
Heightened Def Con from 0.000569353 to 0.000569355
Heightened Def Con from 0.000570263 to 0.000570263
Heightened Def Con from 0.000570352 to 0.000570354
Heightened Def Con from 0.000572317 to 0.000572318
Heightened Def Con from 0.000573318 to 0.000573319
Heightened Def Con from 0.000574263 to 0.000574264
Heightened Def Con from 0.000574317 to 0.000574318
Heightened Def Con from 0.000576317 to 0.000576318
Heightened Def Con from 0.000577088 to 0.000577089
Heightened Def Con from 0.000577262 to 0.000577262
Heightened Def Con from 0.000578318 to 0.000578319
Heightened Def Con from 0.000580353 to 0.000580355
Heightened Def Con from 0.000581316 to 0.000581317
Heightened Def Con from 0.000582317 to 0.000582318
Heightened Def Con from 0.000582353 to 0.000582355
Heightened Def Con from 0.000583087 to 0.000583088
Heightened Def Con from 0.000583352 to 0.000583353
Heightened Def Con from 0.000584263 to 0.000584263
Heightened Def Con from 0.000584352 to 0.000584354
Heightened Def Con from 0.000585317 to 0.000585318
Heightened Def Con from 0.000586262 to 0.000586263
Heightened Def Con from 0.000588318 to 0.000588319
Heightened Def Con from 0.000590263 to 0.000590263
Heightened Def Con from 0.000590317 to 0.000590318
Heightened Def Con from 0.00059035 to 0.000590352
Heightened Def Con from 0.000592089 to 0.00059209
Heightened Def Con from 0.000593263 to 0.000593263
Heightened Def Con from 0.00059335 to 0.000593352
Heightened Def Con from 0.000594263 to 0.000594263
Heightened Def Con from 0.000594317 to 0.000594318
Heightened Def Con from 0.000596263 to 0.000596263
Heightened Def Con from 0.000596317 to 0.000596318
Heightened Def Con from 0.000597263 to 0.000597264
Heightened Def Con from 0.000597317 to 0.000597318
Heightened Def Con from 0.000598088 to 0.000598089
Heightened Def Con from 0.000599263 to 0.000599264
Heightened Def Con from 0.000600317 to 0.000600318
Heightened Def Con from 0.000601317 to 0.000601318
Heightened Def Con from 0.000602263 to 0.000602264
Heightened Def Con from 0.000603318 to 0.000603319
Heightened Def Con from 0.000604317 to 0.000604323
Heightened Def Con from 0.000605318 to 0.000605319
Heightened Def Con from 0.000606319 to 0.00060632
Heightened Def Con from 0.000606354 to 0.000606356
Heightened Def Con from 0.000607261 to 0.000607262
Heightened Def Con from 0.000607316 to 0.000607322
Heightened Def Con from 0.000608317 to 0.000608318
Heightened Def Con from 0.000608353 to 0.000608355
Heightened Def Con from 0.000609263 to 0.000609263
Heightened Def Con from 0.000609319 to 0.00060932
Heightened Def Con from 0.000610319 to 0.00061032
Heightened Def Con from 0.000611317 to 0.000611318
Heightened Def Con from 0.000613318 to 0.000613319
Heightened Def Con from 0.000613354 to 0.000613356
Heightened Def Con from 0.000615319 to 0.00061532
Heightened Def Con from 0.000616316 to 0.000616317
Heightened Def Con from 0.000617088 to 0.000617089
Heightened Def Con from 0.000617317 to 0.000617318
Heightened Def Con from 0.000619087 to 0.000619088
Heightened Def Con from 0.000619318 to 0.000619319
Heightened Def Con from 0.00061935 to 0.000619352
Heightened Def Con from 0.000620263 to 0.000620264
Heightened Def Con from 0.000621319 to 0.000621319
Heightened Def Con from 0.000621349 to 0.000621351
Heightened Def Con from 0.000622263 to 0.000622264
Heightened Def Con from 0.000622353 to 0.000622355
Heightened Def Con from 0.000623317 to 0.000623318
Heightened Def Con from 0.000624317 to 0.000624318
Heightened Def Con from 0.000627352 to 0.000627353
Heightened Def Con from 0.000628262 to 0.000628262
Heightened Def Con from 0.000628318 to 0.000628319
Heightened Def Con from 0.000630317 to 0.000630318
Heightened Def Con from 0.000631317 to 0.000631318
Heightened Def Con from 0.000632317 to 0.000632318
Heightened Def Con from 0.000633265 to 0.000633265
Heightened Def Con from 0.000633349 to 0.000633351
Heightened Def Con from 0.000636316 to 0.000636317
Heightened Def Con from 0.000637348 to 0.00063735
Heightened Def Con from 0.000638088 to 0.000638089
Heightened Def Con from 0.000638318 to 0.000638319
Heightened Def Con from 0.000638351 to 0.000638353
Heightened Def Con from 0.000639317 to 0.000639318
Heightened Def Con from 0.000640263 to 0.000640264
Heightened Def Con from 0.000641317 to 0.000641318
Heightened Def Con from 0.000642089 to 0.00064209
Heightened Def Con from 0.000642318 to 0.000642319
Heightened Def Con from 0.000643318 to 0.000643319
Heightened Def Con from 0.000644353 to 0.000644355
Heightened Def Con from 0.000646319 to 0.000646319
Heightened Def Con from 0.000646349 to 0.000646351
Heightened Def Con from 0.000647319 to 0.000647319
Heightened Def Con from 0.000648318 to 0.000648318
Heightened Def Con from 0.000649318 to 0.000649319
Heightened Def Con from 0.000650354 to 0.000650356
Heightened Def Con from 0.000652317 to 0.000652318
Heightened Def Con from 0.00065235 to 0.000652352
Heightened Def Con from 0.000653318 to 0.000653319
Heightened Def Con from 0.000654317 to 0.000654318
Heightened Def Con from 0.000655317 to 0.000655318
Heightened Def Con from 0.000656263 to 0.000656274
Heightened Def Con from 0.000656318 to 0.000656319
Heightened Def Con from 0.000657088 to 0.000657089
Heightened Def Con from 0.000658263 to 0.000658264
Heightened Def Con from 0.000660088 to 0.000660089
Heightened Def Con from 0.000660263 to 0.000660264
Heightened Def Con from 0.000661353 to 0.000661354
Heightened Def Con from 0.000662352 to 0.000662354
Heightened Def Con from 0.000663317 to 0.000663318
Heightened Def Con from 0.000663353 to 0.000663355
Heightened Def Con from 0.000664088 to 0.000664088
Heightened Def Con from 0.000664263 to 0.000664264
Heightened Def Con from 0.000664317 to 0.000664318
Heightened Def Con from 0.000665319 to 0.000665319
Heightened Def Con from 0.000666316 to 0.000666317
Heightened Def Con from 0.000667317 to 0.000667318
Heightened Def Con from 0.000669319 to 0.00066932
Heightened Def Con from 0.000670262 to 0.000670273
Heightened Def Con from 0.000671318 to 0.000671319
Heightened Def Con from 0.000673262 to 0.000673262
Heightened Def Con from 0.000673318 to 0.000673319
Heightened Def Con from 0.000674263 to 0.000674263
Heightened Def Con from 0.000674352 to 0.000674354
Heightened Def Con from 0.000675318 to 0.000675319
Heightened Def Con from 0.000676263 to 0.000676264
Heightened Def Con from 0.000677316 to 0.000677317
Heightened Def Con from 0.000678088 to 0.000678089
Heightened Def Con from 0.000678263 to 0.000678263
Heightened Def Con from 0.000678353 to 0.000678354
Heightened Def Con from 0.000679262 to 0.000679262
Heightened Def Con from 0.000679318 to 0.000679319
Heightened Def Con from 0.000680316 to 0.000680317
Heightened Def Con from 0.000681262 to 0.000681262
Heightened Def Con from 0.000682317 to 0.000682318
Heightened Def Con from 0.000683088 to 0.000683089
Heightened Def Con from 0.000684353 to 0.000684355
Heightened Def Con from 0.000685317 to 0.000685318
Heightened Def Con from 0.000686262 to 0.000686263
Heightened Def Con from 0.000686352 to 0.000686354
Heightened Def Con from 0.000687354 to 0.000687356
Heightened Def Con from 0.000688317 to 0.000688318
Heightened Def Con from 0.000689318 to 0.000689319
Heightened Def Con from 0.000690263 to 0.000690264
Heightened Def Con from 0.000692089 to 0.000692089
Heightened Def Con from 0.000692263 to 0.000692264
Heightened Def Con from 0.000692318 to 0.000692319
Heightened Def Con from 0.000692353 to 0.000692355
Heightened Def Con from 0.000693264 to 0.000693265
Heightened Def Con from 0.000694088 to 0.000694089
Heightened Def Con from 0.000695264 to 0.000695265
Heightened Def Con from 0.000696262 to 0.000696263
Heightened Def Con from 0.000696319 to 0.00069632
Heightened Def Con from 0.000696349 to 0.000696351
Heightened Def Con from 0.000698265 to 0.000698265
Heightened Def Con from 0.000698348 to 0.00069835
Heightened Def Con from 0.000699088 to 0.000699088
Heightened Def Con from 0.000699319 to 0.00069932
Heightened Def Con from 0.000701354 to 0.000701356
Heightened Def Con from 0.000702263 to 0.000702264
Heightened Def Con from 0.000702318 to 0.000702319
Heightened Def Con from 0.000703088 to 0.000703089
Heightened Def Con from 0.000704262 to 0.000704263
Heightened Def Con from 0.000705353 to 0.000705355
Heightened Def Con from 0.000706318 to 0.000706319
Heightened Def Con from 0.000706353 to 0.000706355
Heightened Def Con from 0.000709087 to 0.000709088
Heightened Def Con from 0.000711087 to 0.000711088
Heightened Def Con from 0.000711317 to 0.000711318
Heightened Def Con from 0.000712263 to 0.000712264
Heightened Def Con from 0.000712352 to 0.000712354
Heightened Def Con from 0.000716089 to 0.00071609
Heightened Def Con from 0.000716318 to 0.000716319
Heightened Def Con from 0.000717317 to 0.000717318
Heightened Def Con from 0.000718262 to 0.000718263
Heightened Def Con from 0.000719263 to 0.000719264
Heightened Def Con from 0.000719353 to 0.000719355
Heightened Def Con from 0.000720317 to 0.000720318
Heightened Def Con from 0.000720353 to 0.000720355
Heightened Def Con from 0.000721318 to 0.000721319
Heightened Def Con from 0.000722261 to 0.000722262
Heightened Def Con from 0.000722316 to 0.000722317
Heightened Def Con from 0.000723262 to 0.000723263
Heightened Def Con from 0.000725263 to 0.000725263
Heightened Def Con from 0.000725317 to 0.000725318
Heightened Def Con from 0.000727319 to 0.000727319
Heightened Def Con from 0.000727351 to 0.000727353
Heightened Def Con from 0.000728263 to 0.000728264
Heightened Def Con from 0.000728317 to 0.000728318
Heightened Def Con from 0.000729318 to 0.000729319
Heightened Def Con from 0.000730262 to 0.000730262
Heightened Def Con from 0.000731317 to 0.000731318
Heightened Def Con from 0.000732264 to 0.000732264
Heightened Def Con from 0.000733263 to 0.000733264
Heightened Def Con from 0.000735319 to 0.00073532
Heightened Def Con from 0.000736318 to 0.000736319
Heightened Def Con from 0.000737317 to 0.000737318
Heightened Def Con from 0.000738352 to 0.000738354
Heightened Def Con from 0.000739264 to 0.000739265
Heightened Def Con from 0.000741262 to 0.000741263
Heightened Def Con from 0.000741319 to 0.00074132
Heightened Def Con from 0.000742262 to 0.000742262
Heightened Def Con from 0.000742318 to 0.000742319
Heightened Def Con from 0.000743263 to 0.000743263
Heightened Def Con from 0.000743317 to 0.000743318
Heightened Def Con from 0.000743353 to 0.000743355
Heightened Def Con from 0.000744318 to 0.000744319
Heightened Def Con from 0.000745318 to 0.000745318
Heightened Def Con from 0.000745351 to 0.000745352
Heightened Def Con from 0.000746262 to 0.000746263
Heightened Def Con from 0.000746317 to 0.000746318
Heightened Def Con from 0.000748088 to 0.000748089
Heightened Def Con from 0.000749318 to 0.000749319
Heightened Def Con from 0.000750261 to 0.000750262
Heightened Def Con from 0.000750318 to 0.000750319
Heightened Def Con from 0.000750354 to 0.000750356
Heightened Def Con from 0.000751087 to 0.000751088
Heightened Def Con from 0.000751317 to 0.000751318
Heightened Def Con from 0.000752319 to 0.000752319
Heightened Def Con from 0.000753089 to 0.00075309
Heightened Def Con from 0.000756316 to 0.000756317
Heightened Def Con from 0.000758316 to 0.000758317
Heightened Def Con from 0.000760262 to 0.000760262
Heightened Def Con from 0.000760318 to 0.000760319
Heightened Def Con from 0.000760354 to 0.000760356
Heightened Def Con from 0.000761088 to 0.000761089
Heightened Def Con from 0.000761319 to 0.00076132
Heightened Def Con from 0.000763262 to 0.000763262
Heightened Def Con from 0.000763349 to 0.000763351
Heightened Def Con from 0.000764262 to 0.000764262
Heightened Def Con from 0.000764354 to 0.000764356
Heightened Def Con from 0.000766317 to 0.000766318
Heightened Def Con from 0.00076635 to 0.000766352
Heightened Def Con from 0.000768263 to 0.000768263
Heightened Def Con from 0.000768318 to 0.000768319
Heightened Def Con from 0.000768349 to 0.000768351
Heightened Def Con from 0.000769316 to 0.000769317
Heightened Def Con from 0.000770319 to 0.00077032
Heightened Def Con from 0.000770349 to 0.000770351
Heightened Def Con from 0.000771088 to 0.000771089
Heightened Def Con from 0.000771262 to 0.000771263
Heightened Def Con from 0.000771318 to 0.000771319
Heightened Def Con from 0.000771354 to 0.000771356
Heightened Def Con from 0.000772318 to 0.000772319
Heightened Def Con from 0.000772354 to 0.000772355
Heightened Def Con from 0.00077309 to 0.00077309
Heightened Def Con from 0.000773261 to 0.000773262
Heightened Def Con from 0.000773318 to 0.000773319
Heightened Def Con from 0.000774352 to 0.000774354
Heightened Def Con from 0.000775317 to 0.000775317
Heightened Def Con from 0.000778352 to 0.000778354
Heightened Def Con from 0.000779353 to 0.000779355
Heightened Def Con from 0.000780317 to 0.000780318
Heightened Def Con from 0.000780353 to 0.000780355
Heightened Def Con from 0.000782317 to 0.000782318
Heightened Def Con from 0.000782353 to 0.000782355
Heightened Def Con from 0.000784263 to 0.000784263
Heightened Def Con from 0.000785262 to 0.000785263
Heightened Def Con from 0.000785352 to 0.000785354
Heightened Def Con from 0.000786088 to 0.000786088
Heightened Def Con from 0.000787263 to 0.000787264
Heightened Def Con from 0.000787317 to 0.000787318
Heightened Def Con from 0.000787353 to 0.000787354
Heightened Def Con from 0.000788317 to 0.000788318
Heightened Def Con from 0.000789317 to 0.000789323
Heightened Def Con from 0.000790351 to 0.000790353
Heightened Def Con from 0.000791087 to 0.000791088
Heightened Def Con from 0.000791263 to 0.000791264
Heightened Def Con from 0.000791317 to 0.000791318
Heightened Def Con from 0.000793317 to 0.000793323
Heightened Def Con from 0.000793352 to 0.000793354
Heightened Def Con from 0.000796088 to 0.000796088
Heightened Def Con from 0.000796261 to 0.000796261
Heightened Def Con from 0.000796319 to 0.00079632
Heightened Def Con from 0.000797318 to 0.000797319
Heightened Def Con from 0.000797351 to 0.000797353
Heightened Def Con from 0.000798263 to 0.000798264
Heightened Def Con from 0.000799264 to 0.000799264
Heightened Def Con from 0.000799318 to 0.000799318
Heightened Def Con from 0.000802317 to 0.000802318
Heightened Def Con from 0.000803317 to 0.000803318
Heightened Def Con from 0.000804262 to 0.000804262
Heightened Def Con from 0.000804317 to 0.000804318
Heightened Def Con from 0.000805355 to 0.000805357
Heightened Def Con from 0.00080626 to 0.000806261
Heightened Def Con from 0.000806319 to 0.000806319
Heightened Def Con from 0.000806347 to 0.000806349
Heightened Def Con from 0.000807317 to 0.000807318
Heightened Def Con from 0.000807353 to 0.000807355
Heightened Def Con from 0.000808354 to 0.000808356
Heightened Def Con from 0.000809317 to 0.000809318
Heightened Def Con from 0.000809352 to 0.000809354
Heightened Def Con from 0.000810318 to 0.000810319
Heightened Def Con from 0.000810354 to 0.000810355
Heightened Def Con from 0.000811089 to 0.00081109
Heightened Def Con from 0.000811262 to 0.000811262
Heightened Def Con from 0.00081309 to 0.00081309
Heightened Def Con from 0.000813262 to 0.000813262
Heightened Def Con from 0.000815317 to 0.000815318
Heightened Def Con from 0.000820319 to 0.000820325
Heightened Def Con from 0.000821088 to 0.000821089
Heightened Def Con from 0.000821318 to 0.000821319
Heightened Def Con from 0.000822089 to 0.00082209
Heightened Def Con from 0.000822318 to 0.000822324
Heightened Def Con from 0.000824088 to 0.000824089
Heightened Def Con from 0.000824317 to 0.000824318
Heightened Def Con from 0.00082435 to 0.000824352
Heightened Def Con from 0.000825318 to 0.000825319
Heightened Def Con from 0.000827348 to 0.000827349
Heightened Def Con from 0.000828263 to 0.000828264
Heightened Def Con from 0.000828316 to 0.000828317
Heightened Def Con from 0.000829351 to 0.000829353
Heightened Def Con from 0.000830351 to 0.000830353
Heightened Def Con from 0.000831263 to 0.000831264
Heightened Def Con from 0.000831319 to 0.00083132
Heightened Def Con from 0.000831354 to 0.000831356
Heightened Def Con from 0.000833088 to 0.000833089
Heightened Def Con from 0.000833318 to 0.000833319
Heightened Def Con from 0.000833353 to 0.000833355
Heightened Def Con from 0.000834088 to 0.000834088
Heightened Def Con from 0.000835261 to 0.000835262
Heightened Def Con from 0.000835355 to 0.000835357
Heightened Def Con from 0.000836087 to 0.000836088
Heightened Def Con from 0.000837348 to 0.00083735
Heightened Def Con from 0.000838089 to 0.000838089
Heightened Def Con from 0.000838261 to 0.000838262
Heightened Def Con from 0.000838318 to 0.000838319
Heightened Def Con from 0.000838351 to 0.000838353
Heightened Def Con from 0.000839263 to 0.000839263
Heightened Def Con from 0.000839319 to 0.000839319
Heightened Def Con from 0.000840262 to 0.000840262
Heightened Def Con from 0.000840317 to 0.000840317
Heightened Def Con from 0.000841263 to 0.000841264
Heightened Def Con from 0.000841317 to 0.000841318
Heightened Def Con from 0.000842088 to 0.000842089
Heightened Def Con from 0.000843318 to 0.000843319
Heightened Def Con from 0.000844317 to 0.000844318
Heightened Def Con from 0.000845352 to 0.000845354
Heightened Def Con from 0.000846317 to 0.000846318
Heightened Def Con from 0.000847263 to 0.000847264
Heightened Def Con from 0.000847318 to 0.000847319
Heightened Def Con from 0.000848352 to 0.000848354
Heightened Def Con from 0.000850263 to 0.000850264
Heightened Def Con from 0.000850318 to 0.000850319
Heightened Def Con from 0.000851318 to 0.000851319
Heightened Def Con from 0.000853318 to 0.000853319
Heightened Def Con from 0.000854087 to 0.000854088
Heightened Def Con from 0.000854317 to 0.000854318
Heightened Def Con from 0.000855318 to 0.000855319
Heightened Def Con from 0.000855351 to 0.000855353
Heightened Def Con from 0.000856318 to 0.000856319
Heightened Def Con from 0.000856353 to 0.000856355
Heightened Def Con from 0.000857087 to 0.000857088
Heightened Def Con from 0.000857263 to 0.000857263
Heightened Def Con from 0.00085735 to 0.000857352
Heightened Def Con from 0.000858317 to 0.000858318
Heightened Def Con from 0.000858353 to 0.000858355
Heightened Def Con from 0.000859087 to 0.000859088
Heightened Def Con from 0.000859263 to 0.000859264
Heightened Def Con from 0.000859318 to 0.000859324
Heightened Def Con from 0.000859351 to 0.000859352
Heightened Def Con from 0.000860262 to 0.000860262
Heightened Def Con from 0.000861319 to 0.00086132
Heightened Def Con from 0.000861354 to 0.000861356
Heightened Def Con from 0.000862317 to 0.000862318
Heightened Def Con from 0.000863318 to 0.000863319
Heightened Def Con from 0.000864317 to 0.000864318
Heightened Def Con from 0.000865088 to 0.000865089
Heightened Def Con from 0.000866319 to 0.000866319
Heightened Def Con from 0.000867263 to 0.000867263
Heightened Def Con from 0.000868264 to 0.000868264
Heightened Def Con from 0.000868317 to 0.000868318
Heightened Def Con from 0.000869319 to 0.00086932
Heightened Def Con from 0.000870087 to 0.000870088
Heightened Def Con from 0.000870318 to 0.000870319
Heightened Def Con from 0.000871318 to 0.000871319
Heightened Def Con from 0.000874316 to 0.000874317
Heightened Def Con from 0.000874352 to 0.000874354
Heightened Def Con from 0.000875262 to 0.000875262
Heightened Def Con from 0.000875318 to 0.000875319
Heightened Def Con from 0.000876317 to 0.000876318
Heightened Def Con from 0.000878318 to 0.000878319
Heightened Def Con from 0.000879317 to 0.000879318
Heightened Def Con from 0.000880317 to 0.000880318
Heightened Def Con from 0.000881316 to 0.000881317
Heightened Def Con from 0.000882353 to 0.000882355
Heightened Def Con from 0.000883089 to 0.00088309
Heightened Def Con from 0.000884317 to 0.000884318
Heightened Def Con from 0.000886318 to 0.000886319
Heightened Def Con from 0.000888319 to 0.00088832
Heightened Def Con from 0.000889263 to 0.000889264
Heightened Def Con from 0.000890316 to 0.000890317
Heightened Def Con from 0.000891262 to 0.000891262
Heightened Def Con from 0.000891319 to 0.000891319
Heightened Def Con from 0.000891351 to 0.000891353
Heightened Def Con from 0.000892262 to 0.000892262
Heightened Def Con from 0.000892354 to 0.000892356
Heightened Def Con from 0.000893317 to 0.000893318
Heightened Def Con from 0.000894088 to 0.000894089
Heightened Def Con from 0.000894317 to 0.000894318
Heightened Def Con from 0.000895316 to 0.000895317
Heightened Def Con from 0.000896317 to 0.000896318
Heightened Def Con from 0.000898319 to 0.00089832
Heightened Def Con from 0.000899318 to 0.000899319
Heightened Def Con from 0.000900262 to 0.000900262
Heightened Def Con from 0.000900348 to 0.00090035
Heightened Def Con from 0.000901087 to 0.000901088
Heightened Def Con from 0.000902089 to 0.00090209
Heightened Def Con from 0.000902318 to 0.000902319
Heightened Def Con from 0.000902351 to 0.000902353
Heightened Def Con from 0.000904088 to 0.000904089
Heightened Def Con from 0.000904318 to 0.000904319
Heightened Def Con from 0.000905263 to 0.000905264
Heightened Def Con from 0.000905318 to 0.000905319
Heightened Def Con from 0.000905351 to 0.000905353
Heightened Def Con from 0.000906318 to 0.000906318
Heightened Def Con from 0.000907263 to 0.000907264
Heightened Def Con from 0.000907352 to 0.000907354
Heightened Def Con from 0.000908263 to 0.000908264
Heightened Def Con from 0.000908351 to 0.000908353
Heightened Def Con from 0.000909263 to 0.000909264
Heightened Def Con from 0.000910262 to 0.000910263
Heightened Def Con from 0.000911316 to 0.000911317
Heightened Def Con from 0.00091135 to 0.000911351
Heightened Def Con from 0.000912317 to 0.000912318
Heightened Def Con from 0.000913318 to 0.000913319
Heightened Def Con from 0.000914317 to 0.000914318
Heightened Def Con from 0.000914353 to 0.000914354
Heightened Def Con from 0.000915316 to 0.000915317
Heightened Def Con from 0.000916317 to 0.000916318
Heightened Def Con from 0.000917088 to 0.000917089
Heightened Def Con from 0.000917261 to 0.000917262
Heightened Def Con from 0.000917319 to 0.00091732
Heightened Def Con from 0.000918317 to 0.000918318
Heightened Def Con from 0.000919087 to 0.000919088
Heightened Def Con from 0.000920348 to 0.00092035
Heightened Def Con from 0.000921264 to 0.000921264
Heightened Def Con from 0.000922088 to 0.000922089
Heightened Def Con from 0.000922263 to 0.000922263
Heightened Def Con from 0.000922318 to 0.000922319
Heightened Def Con from 0.000923319 to 0.000923319
Heightened Def Con from 0.000924319 to 0.00092432
Heightened Def Con from 0.000926088 to 0.000926089
Heightened Def Con from 0.000926317 to 0.000926318
Heightened Def Con from 0.000927263 to 0.000927263
Heightened Def Con from 0.000927319 to 0.00092732
Heightened Def Con from 0.000929317 to 0.000929318
Heightened Def Con from 0.000930316 to 0.000930317
Heightened Def Con from 0.000931263 to 0.000931264
Heightened Def Con from 0.000932318 to 0.000932319
Heightened Def Con from 0.000935319 to 0.00093532
Heightened Def Con from 0.000936318 to 0.000936319
Heightened Def Con from 0.000937317 to 0.000937318
Heightened Def Con from 0.000938088 to 0.000938089
Heightened Def Con from 0.000938263 to 0.000938264
Heightened Def Con from 0.000940263 to 0.000940263
Heightened Def Con from 0.000940317 to 0.000940318
Heightened Def Con from 0.000941317 to 0.000941318
Heightened Def Con from 0.000942317 to 0.000942317
Heightened Def Con from 0.000942353 to 0.000942354
Heightened Def Con from 0.000943318 to 0.000943319
Heightened Def Con from 0.000944263 to 0.000944264
Heightened Def Con from 0.000944354 to 0.000944356
Heightened Def Con from 0.000945319 to 0.000945319
Heightened Def Con from 0.000947319 to 0.00094732
Heightened Def Con from 0.000948263 to 0.000948263
Heightened Def Con from 0.000948316 to 0.000948317
Heightened Def Con from 0.000949261 to 0.000949261
Heightened Def Con from 0.000949317 to 0.000949318
Heightened Def Con from 0.000949353 to 0.000949355
Heightened Def Con from 0.000950088 to 0.000950089
Heightened Def Con from 0.000950351 to 0.000950359
Heightened Def Con from 0.000951317 to 0.000951318
Heightened Def Con from 0.000952317 to 0.000952318
Heightened Def Con from 0.000953264 to 0.000953264
Heightened Def Con from 0.000954262 to 0.000954263
Heightened Def Con from 0.000954318 to 0.000954319
Heightened Def Con from 0.000955317 to 0.000955318
Heightened Def Con from 0.000955353 to 0.000955355
Heightened Def Con from 0.000956352 to 0.000956354
Heightened Def Con from 0.000958089 to 0.00095809
Heightened Def Con from 0.000959261 to 0.000959262
Heightened Def Con from 0.00095935 to 0.000959352
Heightened Def Con from 0.000960262 to 0.000960262
Heightened Def Con from 0.000960319 to 0.00096032
Heightened Def Con from 0.000960351 to 0.000960359
Heightened Def Con from 0.000961087 to 0.000961088
Heightened Def Con from 0.000961348 to 0.00096135
Heightened Def Con from 0.000963262 to 0.000963262
Heightened Def Con from 0.000963318 to 0.000963319
Heightened Def Con from 0.000964263 to 0.000964264
Heightened Def Con from 0.000965088 to 0.000965089
Heightened Def Con from 0.000965319 to 0.00096532
Heightened Def Con from 0.000965349 to 0.000965351
Heightened Def Con from 0.000967263 to 0.000967264
Heightened Def Con from 0.000967317 to 0.000967318
Heightened Def Con from 0.000968087 to 0.000968088
Heightened Def Con from 0.000968264 to 0.000968264
Heightened Def Con from 0.000968317 to 0.000968318
Heightened Def Con from 0.000969088 to 0.000969089
Heightened Def Con from 0.000969317 to 0.000969318
Heightened Def Con from 0.000970262 to 0.000970263
Heightened Def Con from 0.000970319 to 0.00097032
Heightened Def Con from 0.000970349 to 0.000970351
Heightened Def Con from 0.000971353 to 0.000971355
Heightened Def Con from 0.000972318 to 0.000972319
Heightened Def Con from 0.000972351 to 0.000972353
Heightened Def Con from 0.000975264 to 0.000975275
Heightened Def Con from 0.000975352 to 0.000975354
Heightened Def Con from 0.000976317 to 0.000976318
Heightened Def Con from 0.000976353 to 0.000976355
Heightened Def Con from 0.000977088 to 0.000977089
Heightened Def Con from 0.000978088 to 0.000978089
Heightened Def Con from 0.000979262 to 0.000979263
Heightened Def Con from 0.000979317 to 0.000979318
Heightened Def Con from 0.000979356 to 0.000979358
Heightened Def Con from 0.000980263 to 0.000980264
Heightened Def Con from 0.000980317 to 0.000980318
Heightened Def Con from 0.000981263 to 0.000981264
Heightened Def Con from 0.000982264 to 0.000982264
Heightened Def Con from 0.000982317 to 0.000982318
Heightened Def Con from 0.000983261 to 0.000983262
Heightened Def Con from 0.000983319 to 0.00098332
Heightened Def Con from 0.000983349 to 0.000983351
Heightened Def Con from 0.000984261 to 0.000984261
Heightened Def Con from 0.000985317 to 0.000985318
Heightened Def Con from 0.00098609 to 0.00098609
Heightened Def Con from 0.000986352 to 0.000986353
Heightened Def Con from 0.000987352 to 0.000987354
Heightened Def Con from 0.00098809 to 0.000988091
Heightened Def Con from 0.000990352 to 0.000990354
Heightened Def Con from 0.000992317 to 0.000992318
Heightened Def Con from 0.000992353 to 0.000992355
Heightened Def Con from 0.000993318 to 0.000993319
Heightened Def Con from 0.000994316 to 0.000994317
Heightened Def Con from 0.000997262 to 0.000997262
Heightened Def Con from 0.000998087 to 0.000998088
Heightened Def Con from 0.000998353 to 0.000998355

Date: Tue Feb 13 20:14:13 2024
Total elapsed time: 89.696 seconds.

tnom = 27
temp = 27
method = modified trap
totiter = 5605847
traniter = 5605824
tranpoints = 1499125
accept = 1088555
rejected = 411823
matrix size = 201
fillins = 84
solver = Normal
Thread vector: 21.8/5.3[7] 3.5/1.6[7] 7.4/2.1[7] 0.5/0.9[1]  2592/500
Matrix Compiler1: 9.19 KB object code size  1.7/0.8/[0.5]
Matrix Compiler2: 14.93 KB object code size  0.8/1.5/[0.7]

