Circuit: * D:\Users\C1\Documents\C1_Repos\Technion_Project_A\LTSPICE\Simulations\Flyback_Converter_with_GaN,EPC2302, with IR4427 Gate Driver, snubber on P and S.asc

Instance "m:u3:_gd_template:_lo_stage1:_lo_pmos": Length shorter than recommended for a level 1 MOSFET.
Instance "m:u3:_gd_template:_lo_stage1:_lo_nmos": Length shorter than recommended for a level 1 MOSFET.
Instance "m:u3:_gd_template:_lo_stage2:_lo_pmos": Length shorter than recommended for a level 1 MOSFET.
Instance "m:u3:_gd_template:_lo_stage2:_lo_nmos": Length shorter than recommended for a level 1 MOSFET.
Direct Newton iteration for .op point succeeded.
Heightened Def Con from 2.08792e-06 to 2.08854e-06
Heightened Def Con from 4.08933e-06 to 4.08995e-06
Heightened Def Con from 7.08923e-06 to 7.0901e-06
Heightened Def Con from 8.08752e-06 to 8.08839e-06
Heightened Def Con from 1.00884e-05 to 1.00892e-05
Heightened Def Con from 1.20878e-05 to 1.20887e-05
Heightened Def Con from 1.35266e-05 to 1.35272e-05
Heightened Def Con from 1.40866e-05 to 1.40874e-05
Heightened Def Con from 1.45264e-05 to 1.45271e-05
Heightened Def Con from 1.50866e-05 to 1.50875e-05
Heightened Def Con from 1.55282e-05 to 1.55288e-05
Heightened Def Con from 1.65283e-05 to 1.65289e-05
Heightened Def Con from 1.85273e-05 to 1.8528e-05
Heightened Def Con from 2.10868e-05 to 2.10876e-05
Heightened Def Con from 2.15295e-05 to 2.15301e-05
Heightened Def Con from 2.25275e-05 to 2.25281e-05
Heightened Def Con from 2.35282e-05 to 2.35288e-05
Heightened Def Con from 2.40867e-05 to 2.40876e-05
Heightened Def Con from 2.45285e-05 to 2.45292e-05
Heightened Def Con from 2.70873e-05 to 2.70882e-05
Heightened Def Con from 2.80869e-05 to 2.80878e-05
Heightened Def Con from 2.90868e-05 to 2.90877e-05
Heightened Def Con from 3.10872e-05 to 3.10881e-05
Heightened Def Con from 3.35289e-05 to 3.35295e-05
Heightened Def Con from 3.45281e-05 to 3.45288e-05
Heightened Def Con from 3.60873e-05 to 3.60882e-05
Heightened Def Con from 3.8087e-05 to 3.80878e-05
Heightened Def Con from 3.90874e-05 to 3.90883e-05
Heightened Def Con from 4.20874e-05 to 4.20883e-05
Heightened Def Con from 4.30872e-05 to 4.30881e-05
Heightened Def Con from 4.50882e-05 to 4.50891e-05
Heightened Def Con from 4.80867e-05 to 4.80876e-05
Heightened Def Con from 4.85289e-05 to 4.85295e-05
Heightened Def Con from 4.90865e-05 to 4.90874e-05
Heightened Def Con from 5.10884e-05 to 5.10955e-05
Heightened Def Con from 5.30873e-05 to 5.30882e-05
Heightened Def Con from 5.35289e-05 to 5.35295e-05
Heightened Def Con from 5.70878e-05 to 5.70887e-05
Heightened Def Con from 5.85294e-05 to 5.853e-05
Heightened Def Con from 5.90871e-05 to 5.9088e-05
Heightened Def Con from 6.15264e-05 to 6.1527e-05
Heightened Def Con from 6.20872e-05 to 6.2088e-05
Heightened Def Con from 6.45294e-05 to 6.45404e-05
Heightened Def Con from 6.60868e-05 to 6.60877e-05
Heightened Def Con from 6.70871e-05 to 6.7088e-05
Heightened Def Con from 6.80866e-05 to 6.80875e-05
Heightened Def Con from 6.90872e-05 to 6.90881e-05
Heightened Def Con from 7.0087e-05 to 7.00879e-05
Heightened Def Con from 7.05279e-05 to 7.05286e-05
Heightened Def Con from 7.10872e-05 to 7.10881e-05
Heightened Def Con from 7.30877e-05 to 7.30886e-05
Heightened Def Con from 7.40865e-05 to 7.40874e-05
Heightened Def Con from 7.45289e-05 to 7.45295e-05
Heightened Def Con from 7.50865e-05 to 7.50874e-05
Heightened Def Con from 7.55286e-05 to 7.55292e-05
Heightened Def Con from 7.6088e-05 to 7.60889e-05
Heightened Def Con from 7.70877e-05 to 7.70886e-05
Heightened Def Con from 7.85271e-05 to 7.85277e-05
Heightened Def Con from 7.90886e-05 to 7.90895e-05
Heightened Def Con from 8.05266e-05 to 8.05272e-05
Heightened Def Con from 8.10884e-05 to 8.10893e-05
Heightened Def Con from 8.20893e-05 to 8.20973e-05
Heightened Def Con from 8.35286e-05 to 8.35292e-05
Heightened Def Con from 8.70879e-05 to 8.70888e-05
Heightened Def Con from 8.90876e-05 to 8.90885e-05
Heightened Def Con from 9.05273e-05 to 9.05279e-05
Heightened Def Con from 9.10882e-05 to 9.10891e-05
Heightened Def Con from 9.15294e-05 to 9.153e-05
Heightened Def Con from 9.25288e-05 to 9.25294e-05
Heightened Def Con from 9.30875e-05 to 9.30884e-05
Heightened Def Con from 9.60881e-05 to 9.6089e-05
Heightened Def Con from 9.80883e-05 to 9.80891e-05
Heightened Def Con from 9.85275e-05 to 9.85282e-05
Heightened Def Con from 9.90905e-05 to 9.90913e-05
Heightened Def Con from 0.000102089 to 0.00010209
Heightened Def Con from 0.000102528 to 0.000102529
Heightened Def Con from 0.000103088 to 0.000103089
Heightened Def Con from 0.000104087 to 0.000104088
Heightened Def Con from 0.00010509 to 0.000105091
Heightened Def Con from 0.000106089 to 0.00010609
Heightened Def Con from 0.000109088 to 0.000109089
Heightened Def Con from 0.000111087 to 0.000111088
Heightened Def Con from 0.000112087 to 0.000112088
Heightened Def Con from 0.00011253 to 0.000112531
Heightened Def Con from 0.000113088 to 0.000113089
Heightened Def Con from 0.00011409 to 0.000114091
Heightened Def Con from 0.000115529 to 0.000115529
Heightened Def Con from 0.000117529 to 0.000117529
Heightened Def Con from 0.000118087 to 0.000118088
Heightened Def Con from 0.000119088 to 0.000119089
Heightened Def Con from 0.000126089 to 0.00012609
Heightened Def Con from 0.000128088 to 0.000128089
Heightened Def Con from 0.000130087 to 0.000130088
Heightened Def Con from 0.000131089 to 0.00013109
Heightened Def Con from 0.000132089 to 0.00013209
Heightened Def Con from 0.000133089 to 0.00013309
Heightened Def Con from 0.000134089 to 0.000134089
Heightened Def Con from 0.000138089 to 0.00013809
Heightened Def Con from 0.00013909 to 0.000139091

Date: Thu Dec 28 12:56:33 2023
Total elapsed time: 16.115 seconds.

tnom = 27
temp = 27
method = modified trap
totiter = 400418
traniter = 400392
tranpoints = 114471
accept = 84589
rejected = 29981
matrix size = 193
fillins = 67
solver = Normal
Avg thread counts: 1.0/1.0/1.0/1.0
Matrix Compiler1: 9.28 KB object code size  4.9/2.9/[1.3]
Matrix Compiler2: 13.70 KB object code size  3.0/4.5/[1.9]

