Circuit: * D:\Users\C1\Documents\C1_Repos\Technion_Project_A\LTSPICE\Simulations\Flyback VF.asc

WARNING: Less than two connections to node v_g_clamp.  This node is used by r2.
Instance "m:u1:_gd_template:_lo_stage1:_lo_pmos": Length shorter than recommended for a level 1 MOSFET.
Instance "m:u1:_gd_template:_lo_stage1:_lo_nmos": Length shorter than recommended for a level 1 MOSFET.
Instance "m:u1:_gd_template:_lo_stage2:_lo_pmos": Length shorter than recommended for a level 1 MOSFET.
Instance "m:u1:_gd_template:_lo_stage2:_lo_nmos": Length shorter than recommended for a level 1 MOSFET.
Direct Newton iteration for .op point succeeded.
Heightened Def Con from 8.91009e-08 to 8.97259e-08
Heightened Def Con from 4.20813e-07 to 4.23813e-07
Heightened Def Con from 4.82508e-07 to 4.82539e-07
Heightened Def Con from 4.83769e-07 to 4.84394e-07
Heightened Def Con from 4.87523e-07 to 4.88148e-07
Heightened Def Con from 1.48158e-06 to 1.4822e-06
Heightened Def Con from 1.48805e-06 to 1.48867e-06
Heightened Def Con from 2.48384e-06 to 2.48446e-06
Heightened Def Con from 2.48796e-06 to 2.48859e-06
Heightened Def Con from 3.4866e-06 to 3.48723e-06
Heightened Def Con from 3.9769e-06 to 3.9789e-06
Heightened Def Con from 4.08749e-06 to 4.08811e-06
Heightened Def Con from 4.48792e-06 to 4.48794e-06
Heightened Def Con from 4.97895e-06 to 4.98095e-06
Heightened Def Con from 5.08965e-06 to 5.09027e-06
Heightened Def Con from 5.38475e-06 to 5.385e-06
Heightened Def Con from 5.41776e-06 to 5.41901e-06
Heightened Def Con from 5.42054e-06 to 5.42354e-06
Heightened Def Con from 5.45335e-06 to 5.45448e-06
Heightened Def Con from 5.482e-06 to 5.48202e-06
Heightened Def Con from 5.48691e-06 to 5.48691e-06
Heightened Def Con from 5.48695e-06 to 5.4871e-06
Heightened Def Con from 5.66211e-06 to 5.66324e-06
Heightened Def Con from 5.66713e-06 to 5.66914e-06
Heightened Def Con from 5.67151e-06 to 5.67165e-06
Heightened Def Con from 5.67929e-06 to 5.68229e-06
Heightened Def Con from 5.75497e-06 to 5.75709e-06
Heightened Def Con from 5.76165e-06 to 5.76168e-06
Heightened Def Con from 5.9174e-06 to 5.9201e-06
Heightened Def Con from 5.98223e-06 to 5.98226e-06
Heightened Def Con from 5.98253e-06 to 5.98453e-06
Heightened Def Con from 5.98517e-06 to 5.98817e-06
Heightened Def Con from 6.03819e-06 to 6.04119e-06
Heightened Def Con from 6.08871e-06 to 6.08876e-06
Heightened Def Con from 6.28773e-06 to 6.28798e-06
Heightened Def Con from 6.45327e-06 to 6.45627e-06
Heightened Def Con from 6.4868e-06 to 6.48767e-06
Heightened Def Con from 6.61346e-06 to 6.61349e-06
Heightened Def Con from 6.61611e-06 to 6.61723e-06
Heightened Def Con from 6.6177e-06 to 6.61882e-06
Heightened Def Con from 6.91743e-06 to 6.9201e-06
Heightened Def Con from 6.97872e-06 to 6.98059e-06
Heightened Def Con from 7.0218e-06 to 7.0248e-06
Heightened Def Con from 7.08873e-06 to 7.08936e-06
Heightened Def Con from 7.08946e-06 to 7.09033e-06
Heightened Def Con from 7.41005e-06 to 7.41305e-06
Heightened Def Con from 7.43665e-06 to 7.43965e-06
Heightened Def Con from 7.45337e-06 to 7.45637e-06
Heightened Def Con from 7.47322e-06 to 7.47622e-06
Heightened Def Con from 7.48472e-06 to 7.48497e-06
Heightened Def Con from 7.4868e-06 to 7.48719e-06
Heightened Def Con from 7.62405e-06 to 7.6243e-06
Heightened Def Con from 7.64838e-06 to 7.65138e-06
Heightened Def Con from 7.81857e-06 to 7.8186e-06
Heightened Def Con from 7.81937e-06 to 7.81962e-06
Heightened Def Con from 7.81981e-06 to 7.81984e-06
Heightened Def Con from 7.82065e-06 to 7.82078e-06
Heightened Def Con from 7.82187e-06 to 7.82201e-06
Heightened Def Con from 7.82206e-06 to 7.82208e-06
Heightened Def Con from 7.82208e-06 to 7.82208e-06
Heightened Def Con from 7.82266e-06 to 7.82566e-06
Heightened Def Con from 7.91845e-06 to 7.9202e-06
Heightened Def Con from 7.9205e-06 to 7.9235e-06
Heightened Def Con from 7.97909e-06 to 7.98061e-06
Heightened Def Con from 7.98061e-06 to 7.98461e-06
Heightened Def Con from 8.00323e-06 to 8.00623e-06
Heightened Def Con from 8.06919e-06 to 8.07219e-06
Heightened Def Con from 8.08627e-06 to 8.08629e-06
Heightened Def Con from 8.08669e-06 to 8.08674e-06
Heightened Def Con from 8.0869e-06 to 8.08777e-06
Heightened Def Con from 8.41968e-06 to 8.42001e-06
Heightened Def Con from 8.43631e-06 to 8.43931e-06
Heightened Def Con from 8.46966e-06 to 8.47079e-06
Heightened Def Con from 8.48066e-06 to 8.48379e-06
Heightened Def Con from 8.48627e-06 to 8.48679e-06
Heightened Def Con from 8.8609e-06 to 8.86091e-06
Heightened Def Con from 8.8687e-06 to 8.8707e-06
Heightened Def Con from 8.89745e-06 to 8.90045e-06
Heightened Def Con from 8.91705e-06 to 8.92e-06
Heightened Def Con from 8.97918e-06 to 8.97946e-06
Heightened Def Con from 8.97974e-06 to 8.98014e-06
Heightened Def Con from 8.98029e-06 to 8.98429e-06
Heightened Def Con from 9.00196e-06 to 9.00496e-06
Heightened Def Con from 9.0848e-06 to 9.08543e-06
Heightened Def Con from 9.08551e-06 to 9.08638e-06
Heightened Def Con from 9.4185e-06 to 9.4235e-06
Heightened Def Con from 9.4372e-06 to 9.4402e-06
Heightened Def Con from 9.47023e-06 to 9.47323e-06
Heightened Def Con from 9.487e-06 to 9.48716e-06
Heightened Def Con from 9.7062e-06 to 9.7092e-06
Heightened Def Con from 9.91004e-06 to 9.91104e-06
Heightened Def Con from 9.91744e-06 to 9.92344e-06
Heightened Def Con from 9.9286e-06 to 9.92874e-06
Heightened Def Con from 9.94281e-06 to 9.94394e-06
Heightened Def Con from 9.94419e-06 to 9.94621e-06
Heightened Def Con from 9.94655e-06 to 9.9468e-06
Heightened Def Con from 9.97743e-06 to 9.97943e-06
Heightened Def Con from 9.97945e-06 to 9.97945e-06
Heightened Def Con from 9.97945e-06 to 9.97946e-06
Heightened Def Con from 9.97946e-06 to 9.97948e-06
Heightened Def Con from 9.97975e-06 to 9.97977e-06
Heightened Def Con from 9.97977e-06 to 9.9798e-06
Heightened Def Con from 9.97983e-06 to 9.97985e-06
Heightened Def Con from 9.97985e-06 to 9.97985e-06
Heightened Def Con from 9.97985e-06 to 9.97986e-06
Heightened Def Con from 9.97986e-06 to 9.97999e-06
Heightened Def Con from 9.97999e-06 to 9.98799e-06
Heightened Def Con from 1.00351e-05 to 1.00381e-05
Heightened Def Con from 1.00519e-05 to 1.00549e-05
Heightened Def Con from 1.00685e-05 to 1.00715e-05
Heightened Def Con from 1.0085e-05 to 1.0085e-05
Heightened Def Con from 1.0086e-05 to 1.0086e-05
Heightened Def Con from 1.0086e-05 to 1.0086e-05
Heightened Def Con from 1.00862e-05 to 1.00871e-05
Heightened Def Con from 1.041e-05 to 1.04121e-05
Heightened Def Con from 1.04523e-05 to 1.04527e-05
Heightened Def Con from 1.04811e-05 to 1.04812e-05
Heightened Def Con from 1.04815e-05 to 1.04817e-05
Heightened Def Con from 1.04857e-05 to 1.04861e-05
Heightened Def Con from 1.06592e-05 to 1.06612e-05
Heightened Def Con from 1.06746e-05 to 1.06776e-05
Heightened Def Con from 1.09179e-05 to 1.09259e-05
Heightened Def Con from 1.09352e-05 to 1.09353e-05
Heightened Def Con from 1.09366e-05 to 1.09368e-05
Heightened Def Con from 1.09559e-05 to 1.09589e-05
Heightened Def Con from 1.09824e-05 to 1.09834e-05
Heightened Def Con from 1.09834e-05 to 1.09834e-05
Heightened Def Con from 1.0984e-05 to 1.09841e-05
Heightened Def Con from 1.09841e-05 to 1.09841e-05
Heightened Def Con from 1.09844e-05 to 1.09864e-05
Heightened Def Con from 1.09864e-05 to 1.09914e-05
Heightened Def Con from 1.09985e-05 to 1.10015e-05
Heightened Def Con from 1.10036e-05 to 1.10086e-05
Heightened Def Con from 1.10722e-05 to 1.10752e-05
Heightened Def Con from 1.10888e-05 to 1.10894e-05
Heightened Def Con from 1.10895e-05 to 1.10904e-05
Heightened Def Con from 1.10914e-05 to 1.10944e-05
Heightened Def Con from 1.14156e-05 to 1.14197e-05
Heightened Def Con from 1.14208e-05 to 1.14238e-05
Heightened Def Con from 1.14375e-05 to 1.14405e-05
Heightened Def Con from 1.14536e-05 to 1.14566e-05
Heightened Def Con from 1.14828e-05 to 1.14828e-05
Heightened Def Con from 1.14828e-05 to 1.14868e-05
Heightened Def Con from 1.14871e-05 to 1.14874e-05
Heightened Def Con from 1.16606e-05 to 1.16607e-05
Heightened Def Con from 1.16619e-05 to 1.16629e-05
Heightened Def Con from 1.16632e-05 to 1.16654e-05
Heightened Def Con from 1.19775e-05 to 1.19796e-05
Heightened Def Con from 1.19808e-05 to 1.19808e-05
Heightened Def Con from 1.19811e-05 to 1.19813e-05
Heightened Def Con from 1.19813e-05 to 1.19893e-05
Heightened Def Con from 1.19991e-05 to 1.20021e-05
Heightened Def Con from 1.20048e-05 to 1.2006e-05
Heightened Def Con from 1.20067e-05 to 1.20071e-05
Heightened Def Con from 1.20093e-05 to 1.20104e-05
Heightened Def Con from 1.20215e-05 to 1.20245e-05
Heightened Def Con from 1.20389e-05 to 1.20419e-05
Heightened Def Con from 1.20883e-05 to 1.20883e-05
Heightened Def Con from 1.20883e-05 to 1.20883e-05
Heightened Def Con from 1.20885e-05 to 1.20886e-05
Heightened Def Con from 1.20887e-05 to 1.20888e-05
Heightened Def Con from 1.20889e-05 to 1.20892e-05
Heightened Def Con from 1.20893e-05 to 1.20901e-05
Heightened Def Con from 1.24029e-05 to 1.24059e-05
Heightened Def Con from 1.24177e-05 to 1.24197e-05
Heightened Def Con from 1.24354e-05 to 1.24384e-05
Heightened Def Con from 1.24521e-05 to 1.24551e-05
Heightened Def Con from 1.24857e-05 to 1.24859e-05
Heightened Def Con from 1.29179e-05 to 1.29202e-05
Heightened Def Con from 1.29792e-05 to 1.29794e-05
Heightened Def Con from 1.298e-05 to 1.29812e-05
Heightened Def Con from 1.29815e-05 to 1.29845e-05
Heightened Def Con from 1.29894e-05 to 1.29894e-05
Heightened Def Con from 1.29906e-05 to 1.29936e-05
Heightened Def Con from 1.30013e-05 to 1.30043e-05
Heightened Def Con from 1.30043e-05 to 1.30054e-05
Heightened Def Con from 1.30058e-05 to 1.30079e-05
Heightened Def Con from 1.30092e-05 to 1.30132e-05
Heightened Def Con from 1.30222e-05 to 1.30243e-05
Heightened Def Con from 1.30389e-05 to 1.30419e-05
Heightened Def Con from 1.30729e-05 to 1.30759e-05
Heightened Def Con from 1.30888e-05 to 1.30888e-05
Heightened Def Con from 1.30888e-05 to 1.30888e-05
Heightened Def Con from 1.30889e-05 to 1.30889e-05
Heightened Def Con from 1.30889e-05 to 1.30889e-05
Heightened Def Con from 1.30889e-05 to 1.30889e-05
Heightened Def Con from 1.30891e-05 to 1.30892e-05
Heightened Def Con from 1.30893e-05 to 1.30894e-05
Heightened Def Con from 1.30897e-05 to 1.30897e-05
Heightened Def Con from 1.30897e-05 to 1.30898e-05
Heightened Def Con from 1.30899e-05 to 1.30903e-05
Heightened Def Con from 1.30903e-05 to 1.30933e-05
Heightened Def Con from 1.34533e-05 to 1.34543e-05
Heightened Def Con from 1.34795e-05 to 1.34801e-05
Heightened Def Con from 1.34866e-05 to 1.34867e-05
Heightened Def Con from 1.3681e-05 to 1.3684e-05
Heightened Def Con from 1.39167e-05 to 1.3918e-05
Heightened Def Con from 1.39804e-05 to 1.3982e-05
Heightened Def Con from 1.40038e-05 to 1.40088e-05
Heightened Def Con from 1.40088e-05 to 1.40128e-05
Heightened Def Con from 1.4013e-05 to 1.4013e-05
Heightened Def Con from 1.4013e-05 to 1.40133e-05
Heightened Def Con from 1.40144e-05 to 1.40145e-05
Heightened Def Con from 1.40145e-05 to 1.40156e-05
Heightened Def Con from 1.40156e-05 to 1.40157e-05
Heightened Def Con from 1.40158e-05 to 1.40159e-05
Heightened Def Con from 1.40159e-05 to 1.40169e-05
Heightened Def Con from 1.4017e-05 to 1.40171e-05
Heightened Def Con from 1.40181e-05 to 1.40193e-05
Heightened Def Con from 1.40196e-05 to 1.40226e-05
Heightened Def Con from 1.40227e-05 to 1.40237e-05
Heightened Def Con from 1.40394e-05 to 1.40424e-05
Heightened Def Con from 1.40561e-05 to 1.40571e-05
Heightened Def Con from 1.40728e-05 to 1.40758e-05
Heightened Def Con from 1.40893e-05 to 1.40893e-05
Heightened Def Con from 1.40894e-05 to 1.40895e-05
Heightened Def Con from 1.40895e-05 to 1.40895e-05
Heightened Def Con from 1.40897e-05 to 1.40897e-05
Heightened Def Con from 1.40897e-05 to 1.40897e-05
Heightened Def Con from 1.40899e-05 to 1.40899e-05
Heightened Def Con from 1.40901e-05 to 1.40901e-05
Heightened Def Con from 1.40904e-05 to 1.40904e-05
Heightened Def Con from 1.40905e-05 to 1.4091e-05
Heightened Def Con from 1.4091e-05 to 1.4094e-05
Heightened Def Con from 1.44808e-05 to 1.44808e-05
Heightened Def Con from 1.44862e-05 to 1.44862e-05
Heightened Def Con from 1.44864e-05 to 1.44864e-05
Heightened Def Con from 1.44864e-05 to 1.44864e-05
Heightened Def Con from 1.44864e-05 to 1.44864e-05
Heightened Def Con from 1.49175e-05 to 1.49255e-05
Heightened Def Con from 1.49839e-05 to 1.49859e-05
Heightened Def Con from 1.50208e-05 to 1.50238e-05
Heightened Def Con from 1.5037e-05 to 1.504e-05
Heightened Def Con from 1.50436e-05 to 1.50436e-05
Heightened Def Con from 1.50437e-05 to 1.50437e-05
Heightened Def Con from 1.50437e-05 to 1.50437e-05
Heightened Def Con from 1.50439e-05 to 1.50449e-05
Heightened Def Con from 1.50449e-05 to 1.50479e-05
Heightened Def Con from 1.50535e-05 to 1.50556e-05
Heightened Def Con from 1.50755e-05 to 1.50785e-05
Heightened Def Con from 1.5087e-05 to 1.50874e-05
Heightened Def Con from 1.50875e-05 to 1.50876e-05
Heightened Def Con from 1.50877e-05 to 1.50877e-05
Heightened Def Con from 1.50877e-05 to 1.50878e-05
Heightened Def Con from 1.50879e-05 to 1.50879e-05
Heightened Def Con from 1.50879e-05 to 1.50929e-05
Heightened Def Con from 1.54173e-05 to 1.54184e-05
Heightened Def Con from 1.54811e-05 to 1.54812e-05
Heightened Def Con from 1.54814e-05 to 1.54826e-05
Heightened Def Con from 1.54866e-05 to 1.54869e-05
Heightened Def Con from 1.56762e-05 to 1.56773e-05
Heightened Def Con from 1.59163e-05 to 1.59243e-05
Heightened Def Con from 1.59797e-05 to 1.59801e-05
Heightened Def Con from 1.60089e-05 to 1.60129e-05
Heightened Def Con from 1.60216e-05 to 1.60246e-05
Heightened Def Con from 1.60548e-05 to 1.60578e-05
Heightened Def Con from 1.60699e-05 to 1.6071e-05
Heightened Def Con from 1.60712e-05 to 1.60713e-05
Heightened Def Con from 1.60715e-05 to 1.60717e-05
Heightened Def Con from 1.60717e-05 to 1.60727e-05
Heightened Def Con from 1.60727e-05 to 1.60729e-05
Heightened Def Con from 1.60729e-05 to 1.60729e-05
Heightened Def Con from 1.60745e-05 to 1.60745e-05
Heightened Def Con from 1.60745e-05 to 1.60748e-05
Heightened Def Con from 1.60751e-05 to 1.60761e-05
Heightened Def Con from 1.60764e-05 to 1.60766e-05
Heightened Def Con from 1.60767e-05 to 1.60768e-05
Heightened Def Con from 1.60768e-05 to 1.60778e-05
Heightened Def Con from 1.6079e-05 to 1.60791e-05
Heightened Def Con from 1.60791e-05 to 1.60813e-05
Heightened Def Con from 1.60822e-05 to 1.60834e-05
Heightened Def Con from 1.60837e-05 to 1.60857e-05
Heightened Def Con from 1.60857e-05 to 1.60868e-05
Heightened Def Con from 1.60882e-05 to 1.60882e-05
Heightened Def Con from 1.60883e-05 to 1.60884e-05
Heightened Def Con from 1.60885e-05 to 1.60885e-05
Heightened Def Con from 1.60885e-05 to 1.60886e-05
Heightened Def Con from 1.6089e-05 to 1.6089e-05
Heightened Def Con from 1.6089e-05 to 1.6089e-05
Heightened Def Con from 1.60892e-05 to 1.60892e-05
Heightened Def Con from 1.60892e-05 to 1.60892e-05
Heightened Def Con from 1.60892e-05 to 1.60892e-05
Heightened Def Con from 1.60893e-05 to 1.60894e-05
Heightened Def Con from 1.60894e-05 to 1.60907e-05
Heightened Def Con from 1.60907e-05 to 1.60911e-05
Heightened Def Con from 1.60987e-05 to 1.61017e-05
Heightened Def Con from 1.61121e-05 to 1.61151e-05
Heightened Def Con from 1.614e-05 to 1.6143e-05
Heightened Def Con from 1.64837e-05 to 1.64839e-05
Heightened Def Con from 1.64881e-05 to 1.64881e-05
Heightened Def Con from 1.64884e-05 to 1.64884e-05
Heightened Def Con from 1.64885e-05 to 1.64886e-05
Heightened Def Con from 1.64899e-05 to 1.64902e-05
Heightened Def Con from 1.6686e-05 to 1.66881e-05
Heightened Def Con from 1.67323e-05 to 1.67325e-05
Heightened Def Con from 1.67338e-05 to 1.67359e-05
Heightened Def Con from 1.69173e-05 to 1.69224e-05
Heightened Def Con from 1.69828e-05 to 1.6983e-05
Heightened Def Con from 1.69832e-05 to 1.69902e-05
Heightened Def Con from 1.7022e-05 to 1.7025e-05
Heightened Def Con from 1.70387e-05 to 1.70408e-05
Heightened Def Con from 1.70719e-05 to 1.70749e-05
Heightened Def Con from 1.70855e-05 to 1.70885e-05
Heightened Def Con from 1.70885e-05 to 1.70885e-05
Heightened Def Con from 1.70886e-05 to 1.70886e-05
Heightened Def Con from 1.70887e-05 to 1.70887e-05
Heightened Def Con from 1.70887e-05 to 1.70887e-05
Heightened Def Con from 1.70887e-05 to 1.70887e-05
Heightened Def Con from 1.70888e-05 to 1.70888e-05
Heightened Def Con from 1.70888e-05 to 1.70889e-05
Heightened Def Con from 1.70889e-05 to 1.7089e-05
Heightened Def Con from 1.7089e-05 to 1.7089e-05
Heightened Def Con from 1.7089e-05 to 1.70891e-05
Heightened Def Con from 1.70891e-05 to 1.70891e-05
Heightened Def Con from 1.70891e-05 to 1.70891e-05
Heightened Def Con from 1.70892e-05 to 1.70893e-05
Heightened Def Con from 1.70893e-05 to 1.70893e-05
Heightened Def Con from 1.70894e-05 to 1.70894e-05
Heightened Def Con from 1.70894e-05 to 1.70894e-05
Heightened Def Con from 1.70895e-05 to 1.70896e-05
Heightened Def Con from 1.70896e-05 to 1.70896e-05
Heightened Def Con from 1.70896e-05 to 1.70896e-05
Heightened Def Con from 1.70897e-05 to 1.70902e-05
Heightened Def Con from 1.70902e-05 to 1.70932e-05
Heightened Def Con from 1.70933e-05 to 1.70963e-05
Heightened Def Con from 1.71009e-05 to 1.71039e-05
Heightened Def Con from 1.74188e-05 to 1.74228e-05
Heightened Def Con from 1.74355e-05 to 1.74385e-05
Heightened Def Con from 1.74828e-05 to 1.74828e-05
Heightened Def Con from 1.74828e-05 to 1.74849e-05
Heightened Def Con from 1.74857e-05 to 1.7486e-05
Heightened Def Con from 1.7486e-05 to 1.74871e-05
Heightened Def Con from 1.74875e-05 to 1.74915e-05
Heightened Def Con from 1.75187e-05 to 1.75217e-05
Heightened Def Con from 1.76425e-05 to 1.76455e-05
Heightened Def Con from 1.76786e-05 to 1.76816e-05
Heightened Def Con from 1.7693e-05 to 1.7695e-05
Heightened Def Con from 1.76951e-05 to 1.76981e-05
Heightened Def Con from 1.79172e-05 to 1.79242e-05
Heightened Def Con from 1.79824e-05 to 1.79825e-05
Heightened Def Con from 1.79828e-05 to 1.79845e-05
Heightened Def Con from 1.79845e-05 to 1.79875e-05
Heightened Def Con from 1.80028e-05 to 1.80049e-05
Heightened Def Con from 1.80194e-05 to 1.80224e-05
Heightened Def Con from 1.80695e-05 to 1.80725e-05
Heightened Def Con from 1.8087e-05 to 1.8087e-05
Heightened Def Con from 1.80871e-05 to 1.80877e-05
Heightened Def Con from 1.84183e-05 to 1.84253e-05
Heightened Def Con from 1.84518e-05 to 1.84548e-05
Heightened Def Con from 1.8481e-05 to 1.84816e-05
Heightened Def Con from 1.84852e-05 to 1.84853e-05
Heightened Def Con from 1.84864e-05 to 1.84867e-05
Heightened Def Con from 1.85133e-05 to 1.85163e-05
Heightened Def Con from 1.86621e-05 to 1.86621e-05
Heightened Def Con from 1.86738e-05 to 1.86738e-05
Heightened Def Con from 1.87382e-05 to 1.87412e-05
Heightened Def Con from 1.8917e-05 to 1.89232e-05
Heightened Def Con from 1.89819e-05 to 1.89819e-05
Heightened Def Con from 1.89823e-05 to 1.89823e-05
Heightened Def Con from 1.89824e-05 to 1.89828e-05
Heightened Def Con from 1.89829e-05 to 1.89899e-05
Heightened Def Con from 1.90372e-05 to 1.90375e-05
Heightened Def Con from 1.90538e-05 to 1.90568e-05
Heightened Def Con from 1.90871e-05 to 1.90872e-05
Heightened Def Con from 1.90882e-05 to 1.90882e-05
Heightened Def Con from 1.90882e-05 to 1.90886e-05
Heightened Def Con from 1.94182e-05 to 1.94222e-05
Heightened Def Con from 1.9485e-05 to 1.9485e-05
Heightened Def Con from 1.94851e-05 to 1.94853e-05
Heightened Def Con from 1.94853e-05 to 1.94873e-05
Heightened Def Con from 1.96616e-05 to 1.96627e-05
Heightened Def Con from 1.96722e-05 to 1.96732e-05
Heightened Def Con from 1.96739e-05 to 1.9674e-05
Heightened Def Con from 1.9674e-05 to 1.96741e-05
Heightened Def Con from 1.96784e-05 to 1.96785e-05
Heightened Def Con from 1.99169e-05 to 1.99181e-05
Heightened Def Con from 1.99182e-05 to 1.99193e-05
Heightened Def Con from 1.99759e-05 to 1.99779e-05
Heightened Def Con from 1.99786e-05 to 1.99789e-05
Heightened Def Con from 1.99789e-05 to 1.99859e-05
Heightened Def Con from 2.00044e-05 to 2.00075e-05
Heightened Def Con from 2.00113e-05 to 2.00143e-05
Heightened Def Con from 2.0023e-05 to 2.00252e-05
Heightened Def Con from 2.0056e-05 to 2.00563e-05
Heightened Def Con from 2.00898e-05 to 2.00899e-05
Heightened Def Con from 2.009e-05 to 2.00901e-05
Heightened Def Con from 2.00902e-05 to 2.00911e-05
Heightened Def Con from 2.04184e-05 to 2.04191e-05
Heightened Def Con from 2.0481e-05 to 2.04811e-05
Heightened Def Con from 2.04814e-05 to 2.04814e-05
Heightened Def Con from 2.0487e-05 to 2.04872e-05
Heightened Def Con from 2.0671e-05 to 2.06711e-05
Heightened Def Con from 2.06716e-05 to 2.06717e-05
Heightened Def Con from 2.06923e-05 to 2.06943e-05
Heightened Def Con from 2.07313e-05 to 2.07333e-05
Heightened Def Con from 2.07336e-05 to 2.07336e-05
Heightened Def Con from 2.09176e-05 to 2.09201e-05
Heightened Def Con from 2.09202e-05 to 2.09242e-05
Heightened Def Con from 2.09373e-05 to 2.09403e-05
Heightened Def Con from 2.09525e-05 to 2.09555e-05
Heightened Def Con from 2.09819e-05 to 2.09819e-05
Heightened Def Con from 2.09819e-05 to 2.09819e-05
Heightened Def Con from 2.09821e-05 to 2.09823e-05
Heightened Def Con from 2.09823e-05 to 2.09845e-05
Heightened Def Con from 2.09847e-05 to 2.09888e-05
Heightened Def Con from 2.1011e-05 to 2.10121e-05
Heightened Def Con from 2.10151e-05 to 2.10172e-05
Heightened Def Con from 2.10198e-05 to 2.10202e-05
Heightened Def Con from 2.10407e-05 to 2.10437e-05
Heightened Def Con from 2.10839e-05 to 2.10869e-05
Heightened Def Con from 2.10879e-05 to 2.10879e-05
Heightened Def Con from 2.10882e-05 to 2.10882e-05
Heightened Def Con from 2.10888e-05 to 2.10889e-05
Heightened Def Con from 2.10889e-05 to 2.1092e-05
Heightened Def Con from 2.1109e-05 to 2.11091e-05
Heightened Def Con from 2.11091e-05 to 2.11092e-05
Heightened Def Con from 2.11092e-05 to 2.11102e-05
Heightened Def Con from 2.11103e-05 to 2.11114e-05
Heightened Def Con from 2.11169e-05 to 2.1122e-05
Heightened Def Con from 2.14211e-05 to 2.14241e-05
Heightened Def Con from 2.14544e-05 to 2.14574e-05
Heightened Def Con from 2.14814e-05 to 2.14814e-05
Heightened Def Con from 2.14814e-05 to 2.14818e-05
Heightened Def Con from 2.14878e-05 to 2.1488e-05
Heightened Def Con from 2.1488e-05 to 2.1492e-05
Heightened Def Con from 2.16036e-05 to 2.16047e-05
Heightened Def Con from 2.16695e-05 to 2.16695e-05
Heightened Def Con from 2.16696e-05 to 2.16696e-05
Heightened Def Con from 2.16704e-05 to 2.16704e-05
Heightened Def Con from 2.16743e-05 to 2.16773e-05
Heightened Def Con from 2.16788e-05 to 2.1679e-05
Heightened Def Con from 2.16897e-05 to 2.16927e-05
Heightened Def Con from 2.16941e-05 to 2.16953e-05
Heightened Def Con from 2.17253e-05 to 2.17283e-05
Heightened Def Con from 2.1916e-05 to 2.1919e-05
Heightened Def Con from 2.1919e-05 to 2.192e-05
Heightened Def Con from 2.19202e-05 to 2.19223e-05
Heightened Def Con from 2.19223e-05 to 2.19263e-05
Heightened Def Con from 2.19516e-05 to 2.19546e-05
Heightened Def Con from 2.19859e-05 to 2.19861e-05
Heightened Def Con from 2.19862e-05 to 2.19885e-05
Heightened Def Con from 2.19888e-05 to 2.19918e-05
Heightened Def Con from 2.20894e-05 to 2.20894e-05
Heightened Def Con from 2.20896e-05 to 2.20896e-05
Heightened Def Con from 2.20897e-05 to 2.20898e-05
Heightened Def Con from 2.20898e-05 to 2.20899e-05
Heightened Def Con from 2.20902e-05 to 2.20906e-05
Heightened Def Con from 2.21107e-05 to 2.21111e-05
Heightened Def Con from 2.21116e-05 to 2.21136e-05
Heightened Def Con from 2.21156e-05 to 2.21176e-05
Heightened Def Con from 2.21182e-05 to 2.21192e-05
Heightened Def Con from 2.21356e-05 to 2.21386e-05
Heightened Def Con from 2.24181e-05 to 2.24201e-05
Heightened Def Con from 2.24384e-05 to 2.24414e-05
Heightened Def Con from 2.24717e-05 to 2.24721e-05
Heightened Def Con from 2.24831e-05 to 2.24831e-05
Heightened Def Con from 2.24831e-05 to 2.24863e-05
Heightened Def Con from 2.24868e-05 to 2.24878e-05
Heightened Def Con from 2.24887e-05 to 2.24887e-05
Heightened Def Con from 2.24887e-05 to 2.24887e-05
Heightened Def Con from 2.24888e-05 to 2.24889e-05
Heightened Def Con from 2.24889e-05 to 2.24939e-05
Heightened Def Con from 2.26656e-05 to 2.26676e-05
Heightened Def Con from 2.2674e-05 to 2.2677e-05
Heightened Def Con from 2.26867e-05 to 2.26887e-05
Heightened Def Con from 2.27253e-05 to 2.27255e-05
Heightened Def Con from 2.28041e-05 to 2.28061e-05
Heightened Def Con from 2.29101e-05 to 2.29122e-05
Heightened Def Con from 2.29175e-05 to 2.29186e-05
Heightened Def Con from 2.29187e-05 to 2.29201e-05
Heightened Def Con from 2.29203e-05 to 2.29213e-05
Heightened Def Con from 2.29213e-05 to 2.29214e-05
Heightened Def Con from 2.29846e-05 to 2.29846e-05
Heightened Def Con from 2.29848e-05 to 2.29848e-05
Heightened Def Con from 2.29855e-05 to 2.29855e-05
Heightened Def Con from 2.29855e-05 to 2.29858e-05
Heightened Def Con from 2.29858e-05 to 2.29891e-05
Heightened Def Con from 2.30702e-05 to 2.30732e-05
Heightened Def Con from 2.30867e-05 to 2.30868e-05
Heightened Def Con from 2.30868e-05 to 2.30869e-05
Heightened Def Con from 2.3087e-05 to 2.30871e-05
Heightened Def Con from 2.30872e-05 to 2.30872e-05
Heightened Def Con from 2.30875e-05 to 2.30875e-05
Heightened Def Con from 2.30877e-05 to 2.30877e-05
Heightened Def Con from 2.30878e-05 to 2.30878e-05
Heightened Def Con from 2.30879e-05 to 2.30879e-05
Heightened Def Con from 2.30879e-05 to 2.30939e-05
Heightened Def Con from 2.31081e-05 to 2.31082e-05
Heightened Def Con from 2.31092e-05 to 2.31114e-05
Heightened Def Con from 2.31222e-05 to 2.31252e-05
Heightened Def Con from 2.31282e-05 to 2.31284e-05
Heightened Def Con from 2.31416e-05 to 2.31436e-05
Heightened Def Con from 2.31452e-05 to 2.31473e-05
Heightened Def Con from 2.31816e-05 to 2.31837e-05
Heightened Def Con from 2.34535e-05 to 2.34539e-05
Heightened Def Con from 2.34701e-05 to 2.34705e-05
Heightened Def Con from 2.34835e-05 to 2.3484e-05
Heightened Def Con from 2.34866e-05 to 2.34866e-05
Heightened Def Con from 2.34866e-05 to 2.34867e-05
Heightened Def Con from 2.34868e-05 to 2.34869e-05
Heightened Def Con from 2.34915e-05 to 2.34945e-05
Heightened Def Con from 2.3678e-05 to 2.3681e-05
Heightened Def Con from 2.37153e-05 to 2.37174e-05
Heightened Def Con from 2.3718e-05 to 2.37191e-05
Heightened Def Con from 2.37357e-05 to 2.37368e-05
Heightened Def Con from 2.37382e-05 to 2.37393e-05
Heightened Def Con from 2.3742e-05 to 2.37423e-05
Heightened Def Con from 2.37427e-05 to 2.37447e-05
Heightened Def Con from 2.37458e-05 to 2.37488e-05
Heightened Def Con from 2.3758e-05 to 2.3761e-05
Heightened Def Con from 2.37645e-05 to 2.37667e-05
Heightened Def Con from 2.38301e-05 to 2.38321e-05
Heightened Def Con from 2.39163e-05 to 2.39243e-05
Heightened Def Con from 2.39505e-05 to 2.39535e-05
Heightened Def Con from 2.39774e-05 to 2.39784e-05
Heightened Def Con from 2.39792e-05 to 2.39812e-05
Heightened Def Con from 2.39822e-05 to 2.39823e-05
Heightened Def Con from 2.39823e-05 to 2.39856e-05
Heightened Def Con from 2.39856e-05 to 2.39867e-05
Heightened Def Con from 2.40019e-05 to 2.40049e-05
Heightened Def Con from 2.40341e-05 to 2.40371e-05
Heightened Def Con from 2.40508e-05 to 2.40538e-05
Heightened Def Con from 2.4084e-05 to 2.40841e-05
Heightened Def Con from 2.40842e-05 to 2.40843e-05
Heightened Def Con from 2.40845e-05 to 2.40845e-05
Heightened Def Con from 2.40847e-05 to 2.40847e-05
Heightened Def Con from 2.40847e-05 to 2.40847e-05
Heightened Def Con from 2.40847e-05 to 2.40848e-05
Heightened Def Con from 2.40849e-05 to 2.40849e-05
Heightened Def Con from 2.40849e-05 to 2.40849e-05
Heightened Def Con from 2.4085e-05 to 2.40852e-05
Heightened Def Con from 2.40852e-05 to 2.40883e-05
Heightened Def Con from 2.41053e-05 to 2.41074e-05
Heightened Def Con from 2.41102e-05 to 2.41122e-05
Heightened Def Con from 2.41408e-05 to 2.4142e-05
Heightened Def Con from 2.41502e-05 to 2.41513e-05
Heightened Def Con from 2.41516e-05 to 2.41546e-05
Heightened Def Con from 2.43712e-05 to 2.43732e-05
Heightened Def Con from 2.4419e-05 to 2.4422e-05
Heightened Def Con from 2.44814e-05 to 2.44819e-05
Heightened Def Con from 2.44856e-05 to 2.44857e-05
Heightened Def Con from 2.44859e-05 to 2.4486e-05
Heightened Def Con from 2.46887e-05 to 2.46917e-05
Heightened Def Con from 2.47215e-05 to 2.47217e-05
Heightened Def Con from 2.47787e-05 to 2.47817e-05
Heightened Def Con from 2.4833e-05 to 2.4835e-05
Heightened Def Con from 2.49164e-05 to 2.49244e-05
Heightened Def Con from 2.49776e-05 to 2.49786e-05
Heightened Def Con from 2.49796e-05 to 2.49799e-05
Heightened Def Con from 2.49801e-05 to 2.49801e-05
Heightened Def Con from 2.49804e-05 to 2.49815e-05
Heightened Def Con from 2.49816e-05 to 2.49837e-05
Heightened Def Con from 2.50101e-05 to 2.50122e-05
Heightened Def Con from 2.50122e-05 to 2.50152e-05
Heightened Def Con from 2.50551e-05 to 2.50554e-05
Heightened Def Con from 2.50891e-05 to 2.50891e-05
Heightened Def Con from 2.50892e-05 to 2.50892e-05
Heightened Def Con from 2.50893e-05 to 2.50894e-05
Heightened Def Con from 2.50897e-05 to 2.50897e-05
Heightened Def Con from 2.50899e-05 to 2.50899e-05
Heightened Def Con from 2.50901e-05 to 2.50915e-05
Heightened Def Con from 2.51111e-05 to 2.51133e-05
Heightened Def Con from 2.51196e-05 to 2.51206e-05
Heightened Def Con from 2.51222e-05 to 2.51233e-05
Heightened Def Con from 2.54173e-05 to 2.54223e-05
Heightened Def Con from 2.5434e-05 to 2.5437e-05
Heightened Def Con from 2.5484e-05 to 2.54844e-05
Heightened Def Con from 2.56485e-05 to 2.56487e-05
Heightened Def Con from 2.56487e-05 to 2.56517e-05
Heightened Def Con from 2.56908e-05 to 2.56928e-05
Heightened Def Con from 2.56929e-05 to 2.56959e-05
Heightened Def Con from 2.57173e-05 to 2.57174e-05
Heightened Def Con from 2.59184e-05 to 2.59224e-05
Heightened Def Con from 2.59842e-05 to 2.59843e-05
Heightened Def Con from 2.59848e-05 to 2.5985e-05
Heightened Def Con from 2.59852e-05 to 2.59866e-05
Heightened Def Con from 2.59866e-05 to 2.5987e-05
Heightened Def Con from 2.60148e-05 to 2.60159e-05
Heightened Def Con from 2.6018e-05 to 2.60185e-05
Heightened Def Con from 2.60342e-05 to 2.60364e-05
Heightened Def Con from 2.60514e-05 to 2.60544e-05
Heightened Def Con from 2.60676e-05 to 2.60687e-05
Heightened Def Con from 2.60819e-05 to 2.60839e-05
Heightened Def Con from 2.60841e-05 to 2.60842e-05
Heightened Def Con from 2.60843e-05 to 2.60844e-05
Heightened Def Con from 2.60845e-05 to 2.60845e-05
Heightened Def Con from 2.60845e-05 to 2.60846e-05
Heightened Def Con from 2.60847e-05 to 2.60848e-05
Heightened Def Con from 2.60848e-05 to 2.60848e-05
Heightened Def Con from 2.60848e-05 to 2.60849e-05
Heightened Def Con from 2.60849e-05 to 2.6085e-05
Heightened Def Con from 2.60851e-05 to 2.60852e-05
Heightened Def Con from 2.60853e-05 to 2.60854e-05
Heightened Def Con from 2.60854e-05 to 2.60884e-05
Heightened Def Con from 2.61014e-05 to 2.61018e-05
Heightened Def Con from 2.61168e-05 to 2.61198e-05
Heightened Def Con from 2.64799e-05 to 2.64839e-05
Heightened Def Con from 2.64849e-05 to 2.64849e-05
Heightened Def Con from 2.64852e-05 to 2.64856e-05
Heightened Def Con from 2.6636e-05 to 2.6639e-05
Heightened Def Con from 2.66522e-05 to 2.66524e-05
Heightened Def Con from 2.66588e-05 to 2.66618e-05
Heightened Def Con from 2.66691e-05 to 2.66691e-05
Heightened Def Con from 2.66694e-05 to 2.66715e-05
Heightened Def Con from 2.67023e-05 to 2.67053e-05
Heightened Def Con from 2.67255e-05 to 2.67285e-05
Heightened Def Con from 2.67518e-05 to 2.67538e-05
Heightened Def Con from 2.67538e-05 to 2.67568e-05
Heightened Def Con from 2.67578e-05 to 2.67581e-05
Heightened Def Con from 2.67583e-05 to 2.67594e-05
Heightened Def Con from 2.67603e-05 to 2.67633e-05
Heightened Def Con from 2.67693e-05 to 2.67704e-05
Heightened Def Con from 2.69172e-05 to 2.69204e-05
Heightened Def Con from 2.69573e-05 to 2.69603e-05
Heightened Def Con from 2.69832e-05 to 2.69836e-05
Heightened Def Con from 2.6984e-05 to 2.6989e-05
Heightened Def Con from 2.70042e-05 to 2.70072e-05
Heightened Def Con from 2.70104e-05 to 2.70134e-05
Heightened Def Con from 2.70209e-05 to 2.70239e-05
Heightened Def Con from 2.70376e-05 to 2.70406e-05
Heightened Def Con from 2.70883e-05 to 2.70883e-05
Heightened Def Con from 2.70883e-05 to 2.70884e-05
Heightened Def Con from 2.70885e-05 to 2.70886e-05
Heightened Def Con from 2.70889e-05 to 2.7089e-05
Heightened Def Con from 2.70891e-05 to 2.70892e-05
Heightened Def Con from 2.70893e-05 to 2.70894e-05
Heightened Def Con from 2.70894e-05 to 2.70895e-05
Heightened Def Con from 2.70895e-05 to 2.70907e-05
Heightened Def Con from 2.71097e-05 to 2.71097e-05
Heightened Def Con from 2.71137e-05 to 2.71148e-05
Heightened Def Con from 2.74824e-05 to 2.74825e-05
Heightened Def Con from 2.74828e-05 to 2.74828e-05
Heightened Def Con from 2.74833e-05 to 2.74833e-05
Heightened Def Con from 2.74834e-05 to 2.74835e-05
Heightened Def Con from 2.74885e-05 to 2.74889e-05
Heightened Def Con from 2.76883e-05 to 2.76883e-05
Heightened Def Con from 2.76884e-05 to 2.76894e-05
Heightened Def Con from 2.76901e-05 to 2.76922e-05
Heightened Def Con from 2.76947e-05 to 2.76977e-05
Heightened Def Con from 2.7723e-05 to 2.77251e-05
Heightened Def Con from 2.77255e-05 to 2.77265e-05
Heightened Def Con from 2.77265e-05 to 2.77295e-05
Heightened Def Con from 2.77401e-05 to 2.77401e-05
Heightened Def Con from 2.7741e-05 to 2.7742e-05
Heightened Def Con from 2.77522e-05 to 2.77533e-05
Heightened Def Con from 2.77541e-05 to 2.77543e-05
Heightened Def Con from 2.77551e-05 to 2.77551e-05
Heightened Def Con from 2.77551e-05 to 2.77562e-05
Heightened Def Con from 2.77789e-05 to 2.77799e-05
Heightened Def Con from 2.79185e-05 to 2.79265e-05
Heightened Def Con from 2.79791e-05 to 2.79813e-05
Heightened Def Con from 2.79848e-05 to 2.79848e-05
Heightened Def Con from 2.79849e-05 to 2.7985e-05
Heightened Def Con from 2.7985e-05 to 2.7993e-05
Heightened Def Con from 2.8e-05 to 2.80011e-05
Heightened Def Con from 2.80196e-05 to 2.80226e-05
Heightened Def Con from 2.80365e-05 to 2.80395e-05
Heightened Def Con from 2.80531e-05 to 2.80542e-05
Heightened Def Con from 2.80697e-05 to 2.80718e-05
Heightened Def Con from 2.80861e-05 to 2.80861e-05
Heightened Def Con from 2.80865e-05 to 2.80866e-05
Heightened Def Con from 2.8087e-05 to 2.8087e-05
Heightened Def Con from 2.80872e-05 to 2.80872e-05
Heightened Def Con from 2.80873e-05 to 2.80873e-05
Heightened Def Con from 2.80873e-05 to 2.80875e-05
Heightened Def Con from 2.80875e-05 to 2.80906e-05
Heightened Def Con from 2.81061e-05 to 2.81072e-05
Heightened Def Con from 2.81072e-05 to 2.81094e-05
Heightened Def Con from 2.81097e-05 to 2.81098e-05
Heightened Def Con from 2.8112e-05 to 2.8113e-05
Heightened Def Con from 2.81249e-05 to 2.8125e-05
Heightened Def Con from 2.81251e-05 to 2.81281e-05
Heightened Def Con from 2.84168e-05 to 2.84201e-05
Heightened Def Con from 2.84828e-05 to 2.84828e-05
Heightened Def Con from 2.84831e-05 to 2.84832e-05
Heightened Def Con from 2.84883e-05 to 2.84887e-05
Heightened Def Con from 2.86576e-05 to 2.86587e-05
Heightened Def Con from 2.86722e-05 to 2.86752e-05
Heightened Def Con from 2.8687e-05 to 2.86871e-05
Heightened Def Con from 2.86898e-05 to 2.86898e-05
Heightened Def Con from 2.88891e-05 to 2.88911e-05
Heightened Def Con from 2.89005e-05 to 2.89015e-05
Heightened Def Con from 2.89025e-05 to 2.89045e-05
Heightened Def Con from 2.89194e-05 to 2.89234e-05
Heightened Def Con from 2.89601e-05 to 2.89604e-05
Heightened Def Con from 2.89604e-05 to 2.89634e-05
Heightened Def Con from 2.89761e-05 to 2.89763e-05
Heightened Def Con from 2.89824e-05 to 2.89826e-05
Heightened Def Con from 2.89826e-05 to 2.89896e-05
Heightened Def Con from 2.90213e-05 to 2.90217e-05
Heightened Def Con from 2.90225e-05 to 2.90255e-05
Heightened Def Con from 2.90549e-05 to 2.90579e-05
Heightened Def Con from 2.90723e-05 to 2.90753e-05
Heightened Def Con from 2.90872e-05 to 2.90882e-05
Heightened Def Con from 2.90882e-05 to 2.90882e-05
Heightened Def Con from 2.90883e-05 to 2.90883e-05
Heightened Def Con from 2.90884e-05 to 2.90885e-05
Heightened Def Con from 2.90886e-05 to 2.90887e-05
Heightened Def Con from 2.90887e-05 to 2.90887e-05
Heightened Def Con from 2.90887e-05 to 2.90887e-05
Heightened Def Con from 2.9089e-05 to 2.90891e-05
Heightened Def Con from 2.90893e-05 to 2.90893e-05
Heightened Def Con from 2.90893e-05 to 2.90933e-05
Heightened Def Con from 2.91161e-05 to 2.91202e-05
Heightened Def Con from 2.91205e-05 to 2.91209e-05
Heightened Def Con from 2.9129e-05 to 2.91331e-05
Heightened Def Con from 2.94217e-05 to 2.94247e-05
Heightened Def Con from 2.94717e-05 to 2.94738e-05
Heightened Def Con from 2.94818e-05 to 2.94818e-05
Heightened Def Con from 2.9482e-05 to 2.94822e-05
Heightened Def Con from 2.94885e-05 to 2.94888e-05
Heightened Def Con from 2.9554e-05 to 2.9557e-05
Heightened Def Con from 2.96357e-05 to 2.96387e-05
Heightened Def Con from 2.96556e-05 to 2.96556e-05
Heightened Def Con from 2.96556e-05 to 2.96559e-05
Heightened Def Con from 2.96567e-05 to 2.96569e-05
Heightened Def Con from 2.96591e-05 to 2.96621e-05
Heightened Def Con from 2.96664e-05 to 2.96734e-05
Heightened Def Con from 2.96735e-05 to 2.96765e-05
Heightened Def Con from 2.96884e-05 to 2.96894e-05
Heightened Def Con from 2.97257e-05 to 2.97259e-05
Heightened Def Con from 2.97259e-05 to 2.97269e-05
Heightened Def Con from 2.9727e-05 to 2.973e-05
Heightened Def Con from 2.97348e-05 to 2.97348e-05
Heightened Def Con from 2.97348e-05 to 2.97369e-05
Heightened Def Con from 2.97376e-05 to 2.97378e-05
Heightened Def Con from 2.98137e-05 to 2.98148e-05
Heightened Def Con from 2.98981e-05 to 2.99001e-05
Heightened Def Con from 2.99004e-05 to 2.99006e-05
Heightened Def Con from 2.99164e-05 to 2.99244e-05
Heightened Def Con from 2.99616e-05 to 2.99646e-05
Heightened Def Con from 2.99845e-05 to 2.99845e-05
Heightened Def Con from 2.99845e-05 to 2.99846e-05
Heightened Def Con from 2.99846e-05 to 2.99846e-05
Heightened Def Con from 2.99846e-05 to 2.99846e-05
Heightened Def Con from 2.99852e-05 to 2.99853e-05
Heightened Def Con from 2.99856e-05 to 2.99868e-05
Heightened Def Con from 2.99869e-05 to 2.99919e-05
Heightened Def Con from 3.00037e-05 to 3.00067e-05
Heightened Def Con from 3.00205e-05 to 3.00206e-05
Heightened Def Con from 3.00206e-05 to 3.00236e-05
Heightened Def Con from 3.00368e-05 to 3.0038e-05
Heightened Def Con from 3.00535e-05 to 3.00565e-05
Heightened Def Con from 3.00702e-05 to 3.00732e-05
Heightened Def Con from 3.00869e-05 to 3.00869e-05
Heightened Def Con from 3.00869e-05 to 3.00869e-05
Heightened Def Con from 3.00871e-05 to 3.00872e-05
Heightened Def Con from 3.00872e-05 to 3.00872e-05
Heightened Def Con from 3.00873e-05 to 3.00874e-05
Heightened Def Con from 3.00874e-05 to 3.00874e-05
Heightened Def Con from 3.00877e-05 to 3.00878e-05
Heightened Def Con from 3.00879e-05 to 3.00879e-05
Heightened Def Con from 3.00879e-05 to 3.0088e-05
Heightened Def Con from 3.0088e-05 to 3.00902e-05
Heightened Def Con from 3.00903e-05 to 3.00924e-05
Heightened Def Con from 3.01066e-05 to 3.01077e-05
Heightened Def Con from 3.0108e-05 to 3.01081e-05
Heightened Def Con from 3.01105e-05 to 3.01135e-05
Heightened Def Con from 3.01171e-05 to 3.01182e-05
Heightened Def Con from 3.01387e-05 to 3.01417e-05
Heightened Def Con from 3.01436e-05 to 3.01466e-05
Heightened Def Con from 3.0483e-05 to 3.04831e-05
Heightened Def Con from 3.04837e-05 to 3.04837e-05
Heightened Def Con from 3.04841e-05 to 3.04871e-05
Heightened Def Con from 3.04879e-05 to 3.04879e-05
Heightened Def Con from 3.04881e-05 to 3.04882e-05
Heightened Def Con from 3.06668e-05 to 3.06669e-05
Heightened Def Con from 3.06669e-05 to 3.0667e-05
Heightened Def Con from 3.06825e-05 to 3.06829e-05
Heightened Def Con from 3.0683e-05 to 3.0684e-05
Heightened Def Con from 3.06845e-05 to 3.06866e-05
Heightened Def Con from 3.07143e-05 to 3.07154e-05
Heightened Def Con from 3.07272e-05 to 3.07302e-05
Heightened Def Con from 3.0738e-05 to 3.07383e-05
Heightened Def Con from 3.07383e-05 to 3.07393e-05
Heightened Def Con from 3.07393e-05 to 3.07393e-05
Heightened Def Con from 3.07633e-05 to 3.07633e-05
Heightened Def Con from 3.07634e-05 to 3.07636e-05
Heightened Def Con from 3.07823e-05 to 3.07834e-05
Heightened Def Con from 3.08177e-05 to 3.08187e-05
Heightened Def Con from 3.08188e-05 to 3.08208e-05
Heightened Def Con from 3.08853e-05 to 3.08863e-05
Heightened Def Con from 3.08863e-05 to 3.08866e-05
Heightened Def Con from 3.09101e-05 to 3.09131e-05
Heightened Def Con from 3.09158e-05 to 3.09209e-05
Heightened Def Con from 3.09239e-05 to 3.09269e-05
Heightened Def Con from 3.09809e-05 to 3.09809e-05
Heightened Def Con from 3.09809e-05 to 3.09812e-05
Heightened Def Con from 3.09813e-05 to 3.09835e-05
Heightened Def Con from 3.09835e-05 to 3.09875e-05
Heightened Def Con from 3.10205e-05 to 3.10235e-05
Heightened Def Con from 3.10704e-05 to 3.10734e-05
Heightened Def Con from 3.10871e-05 to 3.10871e-05
Heightened Def Con from 3.10873e-05 to 3.10873e-05
Heightened Def Con from 3.10874e-05 to 3.10875e-05
Heightened Def Con from 3.10875e-05 to 3.10875e-05
Heightened Def Con from 3.10875e-05 to 3.10875e-05
Heightened Def Con from 3.10876e-05 to 3.10877e-05
Heightened Def Con from 3.10881e-05 to 3.10884e-05
Heightened Def Con from 3.10884e-05 to 3.10894e-05
Heightened Def Con from 3.11011e-05 to 3.11041e-05
Heightened Def Con from 3.11042e-05 to 3.11072e-05
Heightened Def Con from 3.11128e-05 to 3.1113e-05
Heightened Def Con from 3.11133e-05 to 3.11174e-05
Heightened Def Con from 3.11211e-05 to 3.11215e-05
Heightened Def Con from 3.11259e-05 to 3.11259e-05
Heightened Def Con from 3.1127e-05 to 3.1131e-05
Heightened Def Con from 3.14859e-05 to 3.14862e-05
Heightened Def Con from 3.16135e-05 to 3.16165e-05
Heightened Def Con from 3.16557e-05 to 3.16557e-05
Heightened Def Con from 3.16563e-05 to 3.16574e-05
Heightened Def Con from 3.16774e-05 to 3.16804e-05
Heightened Def Con from 3.16881e-05 to 3.16885e-05
Heightened Def Con from 3.16896e-05 to 3.16918e-05
Heightened Def Con from 3.16924e-05 to 3.16926e-05
Heightened Def Con from 3.17157e-05 to 3.17158e-05
Heightened Def Con from 3.17219e-05 to 3.17249e-05
Heightened Def Con from 3.17303e-05 to 3.17333e-05
Heightened Def Con from 3.17637e-05 to 3.17648e-05
Heightened Def Con from 3.18121e-05 to 3.18132e-05
Heightened Def Con from 3.18137e-05 to 3.18157e-05
Heightened Def Con from 3.18168e-05 to 3.18188e-05
Heightened Def Con from 3.18946e-05 to 3.18957e-05
Heightened Def Con from 3.19034e-05 to 3.19054e-05
Heightened Def Con from 3.19101e-05 to 3.19131e-05
Heightened Def Con from 3.19181e-05 to 3.19194e-05
Heightened Def Con from 3.19196e-05 to 3.19217e-05
Heightened Def Con from 3.19431e-05 to 3.19461e-05
Heightened Def Con from 3.19665e-05 to 3.19675e-05
Heightened Def Con from 3.19675e-05 to 3.19705e-05
Heightened Def Con from 3.19768e-05 to 3.19798e-05
Heightened Def Con from 3.19823e-05 to 3.19825e-05
Heightened Def Con from 3.19828e-05 to 3.1987e-05
Heightened Def Con from 3.20033e-05 to 3.20083e-05
Heightened Def Con from 3.2022e-05 to 3.20242e-05
Heightened Def Con from 3.20328e-05 to 3.20358e-05
Heightened Def Con from 3.20553e-05 to 3.20557e-05
Heightened Def Con from 3.20724e-05 to 3.20754e-05
Heightened Def Con from 3.2089e-05 to 3.2089e-05
Heightened Def Con from 3.2089e-05 to 3.2089e-05
Heightened Def Con from 3.20892e-05 to 3.20893e-05
Heightened Def Con from 3.20893e-05 to 3.20893e-05
Heightened Def Con from 3.20893e-05 to 3.20894e-05
Heightened Def Con from 3.20894e-05 to 3.20894e-05
Heightened Def Con from 3.20895e-05 to 3.20895e-05
Heightened Def Con from 3.20896e-05 to 3.20896e-05
Heightened Def Con from 3.20896e-05 to 3.20897e-05
Heightened Def Con from 3.20899e-05 to 3.20899e-05
Heightened Def Con from 3.20899e-05 to 3.20949e-05
Heightened Def Con from 3.21091e-05 to 3.21095e-05
Heightened Def Con from 3.21114e-05 to 3.21114e-05
Heightened Def Con from 3.21114e-05 to 3.21114e-05
Heightened Def Con from 3.21115e-05 to 3.21118e-05
Heightened Def Con from 3.21121e-05 to 3.21142e-05
Heightened Def Con from 3.21151e-05 to 3.21171e-05
Heightened Def Con from 3.21452e-05 to 3.21482e-05
Heightened Def Con from 3.24212e-05 to 3.24242e-05
Heightened Def Con from 3.24379e-05 to 3.24409e-05
Heightened Def Con from 3.24831e-05 to 3.24842e-05
Heightened Def Con from 3.24844e-05 to 3.24865e-05
Heightened Def Con from 3.24879e-05 to 3.24881e-05
Heightened Def Con from 3.26467e-05 to 3.26469e-05
Heightened Def Con from 3.26471e-05 to 3.26501e-05
Heightened Def Con from 3.2665e-05 to 3.26653e-05
Heightened Def Con from 3.26654e-05 to 3.26654e-05
Heightened Def Con from 3.26657e-05 to 3.26658e-05
Heightened Def Con from 3.2666e-05 to 3.26664e-05
Heightened Def Con from 3.26971e-05 to 3.26983e-05
Heightened Def Con from 3.26984e-05 to 3.26995e-05
Heightened Def Con from 3.27349e-05 to 3.2736e-05
Heightened Def Con from 3.27361e-05 to 3.27391e-05
Heightened Def Con from 3.27685e-05 to 3.27706e-05
Heightened Def Con from 3.2775e-05 to 3.27751e-05
Heightened Def Con from 3.27751e-05 to 3.27753e-05
Heightened Def Con from 3.28136e-05 to 3.28156e-05
Heightened Def Con from 3.28156e-05 to 3.28176e-05
Heightened Def Con from 3.28299e-05 to 3.28302e-05
Heightened Def Con from 3.29079e-05 to 3.29101e-05
Heightened Def Con from 3.29163e-05 to 3.29234e-05
Heightened Def Con from 3.29399e-05 to 3.29429e-05
Heightened Def Con from 3.29547e-05 to 3.29577e-05
Heightened Def Con from 3.29858e-05 to 3.29862e-05
Heightened Def Con from 3.29865e-05 to 3.29887e-05
Heightened Def Con from 3.29911e-05 to 3.29941e-05
Heightened Def Con from 3.30212e-05 to 3.30233e-05
Heightened Def Con from 3.30379e-05 to 3.30383e-05
Heightened Def Con from 3.3071e-05 to 3.30732e-05
Heightened Def Con from 3.30853e-05 to 3.30873e-05
Heightened Def Con from 3.3088e-05 to 3.3088e-05
Heightened Def Con from 3.30881e-05 to 3.30881e-05
Heightened Def Con from 3.30882e-05 to 3.30882e-05
Heightened Def Con from 3.30884e-05 to 3.30884e-05
Heightened Def Con from 3.30885e-05 to 3.30886e-05
Heightened Def Con from 3.30888e-05 to 3.30888e-05
Heightened Def Con from 3.30889e-05 to 3.3092e-05
Heightened Def Con from 3.31145e-05 to 3.31149e-05
Heightened Def Con from 3.31184e-05 to 3.31204e-05
Heightened Def Con from 3.31272e-05 to 3.31272e-05
Heightened Def Con from 3.34179e-05 to 3.34239e-05
Heightened Def Con from 3.34826e-05 to 3.34826e-05
Heightened Def Con from 3.34826e-05 to 3.34866e-05
Heightened Def Con from 3.34876e-05 to 3.34876e-05
Heightened Def Con from 3.34877e-05 to 3.34878e-05
Heightened Def Con from 3.3488e-05 to 3.3492e-05
Heightened Def Con from 3.36321e-05 to 3.36351e-05
Heightened Def Con from 3.36558e-05 to 3.3656e-05
Heightened Def Con from 3.36561e-05 to 3.36572e-05
Heightened Def Con from 3.36575e-05 to 3.36578e-05
Heightened Def Con from 3.36589e-05 to 3.36619e-05
Heightened Def Con from 3.36621e-05 to 3.36641e-05
Heightened Def Con from 3.36644e-05 to 3.36645e-05
Heightened Def Con from 3.36645e-05 to 3.36646e-05
Heightened Def Con from 3.36646e-05 to 3.36649e-05
Heightened Def Con from 3.36649e-05 to 3.3665e-05
Heightened Def Con from 3.36675e-05 to 3.36745e-05
Heightened Def Con from 3.36799e-05 to 3.368e-05
Heightened Def Con from 3.368e-05 to 3.36821e-05
Heightened Def Con from 3.36832e-05 to 3.36853e-05
Heightened Def Con from 3.36892e-05 to 3.36892e-05
Heightened Def Con from 3.36894e-05 to 3.36898e-05
Heightened Def Con from 3.36922e-05 to 3.36932e-05
Heightened Def Con from 3.37109e-05 to 3.37139e-05
Heightened Def Con from 3.37279e-05 to 3.3728e-05
Heightened Def Con from 3.37309e-05 to 3.3732e-05
Heightened Def Con from 3.37357e-05 to 3.37357e-05
Heightened Def Con from 3.37357e-05 to 3.37368e-05
Heightened Def Con from 3.3738e-05 to 3.37391e-05
Heightened Def Con from 3.37392e-05 to 3.37403e-05
Heightened Def Con from 3.37499e-05 to 3.3751e-05
Heightened Def Con from 3.37513e-05 to 3.37543e-05
Heightened Def Con from 3.37725e-05 to 3.37737e-05
Heightened Def Con from 3.37737e-05 to 3.37748e-05
Heightened Def Con from 3.37751e-05 to 3.37762e-05
Heightened Def Con from 3.37765e-05 to 3.37776e-05
Heightened Def Con from 3.37861e-05 to 3.37872e-05
Heightened Def Con from 3.38135e-05 to 3.38155e-05
Heightened Def Con from 3.38158e-05 to 3.38178e-05
Heightened Def Con from 3.38191e-05 to 3.38211e-05
Heightened Def Con from 3.39184e-05 to 3.39196e-05
Heightened Def Con from 3.39198e-05 to 3.3921e-05
Heightened Def Con from 3.39212e-05 to 3.39242e-05
Heightened Def Con from 3.39391e-05 to 3.39393e-05
Heightened Def Con from 3.39839e-05 to 3.3984e-05
Heightened Def Con from 3.3984e-05 to 3.39892e-05
Heightened Def Con from 3.40007e-05 to 3.40037e-05
Heightened Def Con from 3.40052e-05 to 3.40082e-05
Heightened Def Con from 3.40211e-05 to 3.40232e-05
Heightened Def Con from 3.40372e-05 to 3.40394e-05
Heightened Def Con from 3.40539e-05 to 3.40569e-05
Heightened Def Con from 3.4066e-05 to 3.40671e-05
Heightened Def Con from 3.4071e-05 to 3.4074e-05
Heightened Def Con from 3.40874e-05 to 3.40874e-05
Heightened Def Con from 3.40876e-05 to 3.40876e-05
Heightened Def Con from 3.40878e-05 to 3.40879e-05
Heightened Def Con from 3.40884e-05 to 3.40884e-05
Heightened Def Con from 3.40884e-05 to 3.40885e-05
Heightened Def Con from 3.40885e-05 to 3.40925e-05
Heightened Def Con from 3.41201e-05 to 3.41204e-05
Heightened Def Con from 3.41491e-05 to 3.41521e-05
Heightened Def Con from 3.41533e-05 to 3.41563e-05
Heightened Def Con from 3.41563e-05 to 3.41574e-05
Heightened Def Con from 3.44704e-05 to 3.44734e-05
Heightened Def Con from 3.44815e-05 to 3.44816e-05
Heightened Def Con from 3.44871e-05 to 3.44874e-05
Heightened Def Con from 3.45394e-05 to 3.45415e-05
Heightened Def Con from 3.45919e-05 to 3.4593e-05
Heightened Def Con from 3.45946e-05 to 3.45976e-05
Heightened Def Con from 3.4635e-05 to 3.4638e-05
Heightened Def Con from 3.46633e-05 to 3.46636e-05
Heightened Def Con from 3.46667e-05 to 3.46727e-05
Heightened Def Con from 3.4673e-05 to 3.4676e-05
Heightened Def Con from 3.46887e-05 to 3.46898e-05
Heightened Def Con from 3.47228e-05 to 3.47238e-05
Heightened Def Con from 3.4724e-05 to 3.4724e-05
Heightened Def Con from 3.4724e-05 to 3.4727e-05
Heightened Def Con from 3.47346e-05 to 3.47347e-05
Heightened Def Con from 3.47347e-05 to 3.47347e-05
Heightened Def Con from 3.47348e-05 to 3.47378e-05
Heightened Def Con from 3.47422e-05 to 3.47442e-05
Heightened Def Con from 3.47443e-05 to 3.47454e-05
Heightened Def Con from 3.47465e-05 to 3.47495e-05
Heightened Def Con from 3.49182e-05 to 3.49202e-05
Heightened Def Con from 3.49203e-05 to 3.49225e-05
Heightened Def Con from 3.49713e-05 to 3.49724e-05
Heightened Def Con from 3.4983e-05 to 3.49831e-05
Heightened Def Con from 3.49833e-05 to 3.49853e-05
Heightened Def Con from 3.50039e-05 to 3.50069e-05
Heightened Def Con from 3.50205e-05 to 3.50235e-05
Heightened Def Con from 3.50372e-05 to 3.50402e-05
Heightened Def Con from 3.50614e-05 to 3.50644e-05
Heightened Def Con from 3.50728e-05 to 3.50738e-05
Heightened Def Con from 3.50872e-05 to 3.50872e-05
Heightened Def Con from 3.50878e-05 to 3.50878e-05
Heightened Def Con from 3.5088e-05 to 3.5088e-05
Heightened Def Con from 3.5088e-05 to 3.5088e-05
Heightened Def Con from 3.5088e-05 to 3.50881e-05
Heightened Def Con from 3.50882e-05 to 3.50885e-05
Heightened Def Con from 3.51085e-05 to 3.51117e-05
Heightened Def Con from 3.51131e-05 to 3.51182e-05
Heightened Def Con from 3.51183e-05 to 3.51187e-05
Heightened Def Con from 3.51188e-05 to 3.51191e-05
Heightened Def Con from 3.51288e-05 to 3.51308e-05
Heightened Def Con from 3.51436e-05 to 3.51437e-05
Heightened Def Con from 3.51437e-05 to 3.51467e-05
Heightened Def Con from 3.54812e-05 to 3.54812e-05
Heightened Def Con from 3.5482e-05 to 3.5482e-05
Heightened Def Con from 3.54881e-05 to 3.54881e-05
Heightened Def Con from 3.54881e-05 to 3.54881e-05
Heightened Def Con from 3.54881e-05 to 3.54884e-05
Heightened Def Con from 3.56354e-05 to 3.56384e-05
Heightened Def Con from 3.56492e-05 to 3.56522e-05
Heightened Def Con from 3.56563e-05 to 3.56593e-05
Heightened Def Con from 3.56636e-05 to 3.56639e-05
Heightened Def Con from 3.56649e-05 to 3.5669e-05
Heightened Def Con from 3.56691e-05 to 3.56712e-05
Heightened Def Con from 3.56854e-05 to 3.56884e-05
Heightened Def Con from 3.57066e-05 to 3.57087e-05
Heightened Def Con from 3.57205e-05 to 3.57206e-05
Heightened Def Con from 3.57208e-05 to 3.57208e-05
Heightened Def Con from 3.57222e-05 to 3.57222e-05
Heightened Def Con from 3.57222e-05 to 3.57252e-05
Heightened Def Con from 3.57309e-05 to 3.5731e-05
Heightened Def Con from 3.5731e-05 to 3.57311e-05
Heightened Def Con from 3.57312e-05 to 3.57312e-05
Heightened Def Con from 3.57357e-05 to 3.5736e-05
Heightened Def Con from 3.57363e-05 to 3.57373e-05
Heightened Def Con from 3.57412e-05 to 3.57432e-05
Heightened Def Con from 3.57436e-05 to 3.57466e-05
Heightened Def Con from 3.57732e-05 to 3.57744e-05
Heightened Def Con from 3.58322e-05 to 3.58342e-05
Heightened Def Con from 3.58354e-05 to 3.58356e-05
Heightened Def Con from 3.59178e-05 to 3.59221e-05
Heightened Def Con from 3.59221e-05 to 3.59251e-05
Heightened Def Con from 3.59409e-05 to 3.59409e-05
Heightened Def Con from 3.59409e-05 to 3.59421e-05
Heightened Def Con from 3.59592e-05 to 3.59594e-05
Heightened Def Con from 3.59854e-05 to 3.59854e-05
Heightened Def Con from 3.59854e-05 to 3.59854e-05
Heightened Def Con from 3.59856e-05 to 3.59858e-05
Heightened Def Con from 3.59865e-05 to 3.59871e-05
Heightened Def Con from 3.59874e-05 to 3.59886e-05
Heightened Def Con from 3.60049e-05 to 3.6007e-05
Heightened Def Con from 3.60212e-05 to 3.60215e-05
Heightened Def Con from 3.60717e-05 to 3.60738e-05
Heightened Def Con from 3.60883e-05 to 3.60884e-05
Heightened Def Con from 3.60884e-05 to 3.60884e-05
Heightened Def Con from 3.60886e-05 to 3.60886e-05
Heightened Def Con from 3.60887e-05 to 3.60888e-05
Heightened Def Con from 3.6089e-05 to 3.6089e-05
Heightened Def Con from 3.60892e-05 to 3.60892e-05
Heightened Def Con from 3.60894e-05 to 3.60896e-05
Heightened Def Con from 3.60896e-05 to 3.60936e-05
Heightened Def Con from 3.60958e-05 to 3.60979e-05
Heightened Def Con from 3.61096e-05 to 3.61106e-05
Heightened Def Con from 3.61106e-05 to 3.61116e-05
Heightened Def Con from 3.61139e-05 to 3.61169e-05
Heightened Def Con from 3.61174e-05 to 3.61177e-05
Heightened Def Con from 3.61401e-05 to 3.61403e-05
Heightened Def Con from 3.61409e-05 to 3.6143e-05
Heightened Def Con from 3.61431e-05 to 3.61442e-05
Heightened Def Con from 3.61446e-05 to 3.61476e-05
Heightened Def Con from 3.64523e-05 to 3.64553e-05
Heightened Def Con from 3.64827e-05 to 3.64828e-05
Heightened Def Con from 3.64857e-05 to 3.64857e-05
Heightened Def Con from 3.64858e-05 to 3.64858e-05
Heightened Def Con from 3.64859e-05 to 3.64859e-05
Heightened Def Con from 3.64859e-05 to 3.64861e-05
Heightened Def Con from 3.66557e-05 to 3.66568e-05
Heightened Def Con from 3.66574e-05 to 3.66604e-05
Heightened Def Con from 3.66719e-05 to 3.66749e-05
Heightened Def Con from 3.67124e-05 to 3.67154e-05
Heightened Def Con from 3.67157e-05 to 3.67167e-05
Heightened Def Con from 3.67225e-05 to 3.67245e-05
Heightened Def Con from 3.67245e-05 to 3.67255e-05
Heightened Def Con from 3.67256e-05 to 3.67266e-05
Heightened Def Con from 3.67273e-05 to 3.67303e-05
Heightened Def Con from 3.67364e-05 to 3.67375e-05
Heightened Def Con from 3.67387e-05 to 3.67387e-05
Heightened Def Con from 3.67387e-05 to 3.67408e-05
Heightened Def Con from 3.67636e-05 to 3.67636e-05
Heightened Def Con from 3.67636e-05 to 3.67639e-05
Heightened Def Con from 3.67716e-05 to 3.67718e-05
Heightened Def Con from 3.67718e-05 to 3.67729e-05
Heightened Def Con from 3.68108e-05 to 3.68128e-05
Heightened Def Con from 3.6821e-05 to 3.6823e-05
Heightened Def Con from 3.69047e-05 to 3.69049e-05
Heightened Def Con from 3.69052e-05 to 3.69072e-05
Heightened Def Con from 3.69073e-05 to 3.69075e-05
Heightened Def Con from 3.69177e-05 to 3.69208e-05
Heightened Def Con from 3.69211e-05 to 3.69241e-05
Heightened Def Con from 3.69351e-05 to 3.69363e-05
Heightened Def Con from 3.69508e-05 to 3.69538e-05
Heightened Def Con from 3.69641e-05 to 3.69661e-05
Heightened Def Con from 3.69661e-05 to 3.69691e-05
Heightened Def Con from 3.69777e-05 to 3.69788e-05
Heightened Def Con from 3.69798e-05 to 3.69801e-05
Heightened Def Con from 3.69801e-05 to 3.69802e-05
Heightened Def Con from 3.70046e-05 to 3.70058e-05
Heightened Def Con from 3.70212e-05 to 3.70215e-05
Heightened Def Con from 3.7036e-05 to 3.7039e-05
Heightened Def Con from 3.70537e-05 to 3.70567e-05
Heightened Def Con from 3.70703e-05 to 3.70733e-05
Heightened Def Con from 3.7087e-05 to 3.70871e-05
Heightened Def Con from 3.70873e-05 to 3.70873e-05
Heightened Def Con from 3.70874e-05 to 3.70875e-05
Heightened Def Con from 3.70875e-05 to 3.70875e-05
Heightened Def Con from 3.70879e-05 to 3.70879e-05
Heightened Def Con from 3.7088e-05 to 3.70882e-05
Heightened Def Con from 3.70882e-05 to 3.70894e-05
Heightened Def Con from 3.71137e-05 to 3.71168e-05
Heightened Def Con from 3.71172e-05 to 3.71183e-05
Heightened Def Con from 3.71186e-05 to 3.71216e-05
Heightened Def Con from 3.71265e-05 to 3.71275e-05
Heightened Def Con from 3.7128e-05 to 3.7129e-05
Heightened Def Con from 3.7129e-05 to 3.7134e-05
Heightened Def Con from 3.71633e-05 to 3.71663e-05
Heightened Def Con from 3.74368e-05 to 3.74389e-05
Heightened Def Con from 3.74529e-05 to 3.74559e-05
Heightened Def Con from 3.74594e-05 to 3.74624e-05
Heightened Def Con from 3.7479e-05 to 3.7482e-05
Heightened Def Con from 3.74829e-05 to 3.74829e-05
Heightened Def Con from 3.74834e-05 to 3.74857e-05
Heightened Def Con from 3.74866e-05 to 3.74868e-05
Heightened Def Con from 3.74876e-05 to 3.74906e-05
Heightened Def Con from 3.76351e-05 to 3.76381e-05
Heightened Def Con from 3.7645e-05 to 3.76453e-05
Heightened Def Con from 3.76513e-05 to 3.76543e-05
Heightened Def Con from 3.76571e-05 to 3.76601e-05
Heightened Def Con from 3.76683e-05 to 3.76743e-05
Heightened Def Con from 3.76757e-05 to 3.76768e-05
Heightened Def Con from 3.76875e-05 to 3.76885e-05
Heightened Def Con from 3.769e-05 to 3.76903e-05
Heightened Def Con from 3.76906e-05 to 3.76927e-05
Heightened Def Con from 3.7816e-05 to 3.7818e-05
Heightened Def Con from 3.7891e-05 to 3.7893e-05
Heightened Def Con from 3.78931e-05 to 3.78951e-05
Heightened Def Con from 3.78952e-05 to 3.78972e-05
Heightened Def Con from 3.78987e-05 to 3.79007e-05
Heightened Def Con from 3.79178e-05 to 3.79211e-05
Heightened Def Con from 3.79212e-05 to 3.79252e-05
Heightened Def Con from 3.79321e-05 to 3.79351e-05
Heightened Def Con from 3.79504e-05 to 3.79534e-05
Heightened Def Con from 3.79819e-05 to 3.79819e-05
Heightened Def Con from 3.7982e-05 to 3.79821e-05
Heightened Def Con from 3.79825e-05 to 3.79847e-05
Heightened Def Con from 3.80032e-05 to 3.80033e-05
Heightened Def Con from 3.80034e-05 to 3.80055e-05
Heightened Def Con from 3.80199e-05 to 3.80229e-05
Heightened Def Con from 3.80696e-05 to 3.80726e-05
Heightened Def Con from 3.80863e-05 to 3.80864e-05
Heightened Def Con from 3.80866e-05 to 3.80866e-05
Heightened Def Con from 3.80868e-05 to 3.80868e-05
Heightened Def Con from 3.8087e-05 to 3.8087e-05
Heightened Def Con from 3.8087e-05 to 3.80871e-05
Heightened Def Con from 3.80872e-05 to 3.80872e-05
Heightened Def Con from 3.80874e-05 to 3.80878e-05
Heightened Def Con from 3.80878e-05 to 3.80889e-05
Heightened Def Con from 3.80891e-05 to 3.80895e-05
Heightened Def Con from 3.81087e-05 to 3.81127e-05
Heightened Def Con from 3.8113e-05 to 3.8113e-05
Heightened Def Con from 3.81132e-05 to 3.81132e-05
Heightened Def Con from 3.81226e-05 to 3.81226e-05
Heightened Def Con from 3.84173e-05 to 3.84233e-05
Heightened Def Con from 3.84806e-05 to 3.84806e-05
Heightened Def Con from 3.8481e-05 to 3.8481e-05
Heightened Def Con from 3.84817e-05 to 3.84817e-05
Heightened Def Con from 3.84818e-05 to 3.84858e-05
Heightened Def Con from 3.8486e-05 to 3.84863e-05
Heightened Def Con from 3.86435e-05 to 3.86465e-05
Heightened Def Con from 3.86546e-05 to 3.86548e-05
Heightened Def Con from 3.86616e-05 to 3.86617e-05
Heightened Def Con from 3.8662e-05 to 3.86621e-05
Heightened Def Con from 3.86621e-05 to 3.86622e-05
Heightened Def Con from 3.86624e-05 to 3.86624e-05
Heightened Def Con from 3.86631e-05 to 3.86633e-05
Heightened Def Con from 3.86633e-05 to 3.86636e-05
Heightened Def Con from 3.86638e-05 to 3.86641e-05
Heightened Def Con from 3.86643e-05 to 3.86725e-05
Heightened Def Con from 3.86896e-05 to 3.86898e-05
Heightened Def Con from 3.86898e-05 to 3.86909e-05
Heightened Def Con from 3.86916e-05 to 3.86946e-05
Heightened Def Con from 3.87201e-05 to 3.87212e-05
Heightened Def Con from 3.8722e-05 to 3.87241e-05
Heightened Def Con from 3.87244e-05 to 3.87265e-05
Heightened Def Con from 3.87304e-05 to 3.87325e-05
Heightened Def Con from 3.87339e-05 to 3.87349e-05
Heightened Def Con from 3.8735e-05 to 3.87352e-05
Heightened Def Con from 3.87505e-05 to 3.87526e-05
Heightened Def Con from 3.87765e-05 to 3.87787e-05
Heightened Def Con from 3.87882e-05 to 3.87912e-05
Heightened Def Con from 3.89098e-05 to 3.8912e-05
Heightened Def Con from 3.89137e-05 to 3.89139e-05
Heightened Def Con from 3.89189e-05 to 3.89202e-05
Heightened Def Con from 3.89512e-05 to 3.89523e-05
Heightened Def Con from 3.89759e-05 to 3.8977e-05
Heightened Def Con from 3.89823e-05 to 3.89827e-05
Heightened Def Con from 3.89827e-05 to 3.89839e-05
Heightened Def Con from 3.89841e-05 to 3.89891e-05
Heightened Def Con from 3.90035e-05 to 3.90045e-05
Heightened Def Con from 3.90047e-05 to 3.90047e-05
Heightened Def Con from 3.90114e-05 to 3.90116e-05
Heightened Def Con from 3.90155e-05 to 3.90185e-05
Heightened Def Con from 3.9021e-05 to 3.90231e-05
Heightened Def Con from 3.90377e-05 to 3.90387e-05
Heightened Def Con from 3.90545e-05 to 3.90575e-05
Heightened Def Con from 3.9071e-05 to 3.9074e-05
Heightened Def Con from 3.90878e-05 to 3.90878e-05
Heightened Def Con from 3.9088e-05 to 3.9088e-05
Heightened Def Con from 3.90882e-05 to 3.90882e-05
Heightened Def Con from 3.90882e-05 to 3.90882e-05
Heightened Def Con from 3.90884e-05 to 3.90884e-05
Heightened Def Con from 3.90886e-05 to 3.90886e-05
Heightened Def Con from 3.90888e-05 to 3.90891e-05
Heightened Def Con from 3.90891e-05 to 3.90912e-05
Heightened Def Con from 3.91089e-05 to 3.9109e-05
Heightened Def Con from 3.9109e-05 to 3.9114e-05
Heightened Def Con from 3.91314e-05 to 3.91344e-05
Heightened Def Con from 3.91345e-05 to 3.91348e-05
Heightened Def Con from 3.91349e-05 to 3.91379e-05
Heightened Def Con from 3.94511e-05 to 3.94541e-05
Heightened Def Con from 3.94807e-05 to 3.94818e-05
Heightened Def Con from 3.94841e-05 to 3.94841e-05
Heightened Def Con from 3.94841e-05 to 3.94841e-05
Heightened Def Con from 3.94849e-05 to 3.94849e-05
Heightened Def Con from 3.94849e-05 to 3.9485e-05
Heightened Def Con from 3.9485e-05 to 3.9485e-05
Heightened Def Con from 3.94859e-05 to 3.9489e-05
Heightened Def Con from 3.94972e-05 to 3.95002e-05
Heightened Def Con from 3.96563e-05 to 3.96565e-05
Heightened Def Con from 3.96567e-05 to 3.96577e-05
Heightened Def Con from 3.96577e-05 to 3.9658e-05
Heightened Def Con from 3.96581e-05 to 3.96583e-05
Heightened Def Con from 3.96592e-05 to 3.96622e-05
Heightened Def Con from 3.96636e-05 to 3.96647e-05
Heightened Def Con from 3.96683e-05 to 3.96704e-05
Heightened Def Con from 3.96894e-05 to 3.96914e-05
Heightened Def Con from 3.96914e-05 to 3.96915e-05
Heightened Def Con from 3.96915e-05 to 3.96918e-05
Heightened Def Con from 3.96937e-05 to 3.96967e-05
Heightened Def Con from 3.97084e-05 to 3.97087e-05
Heightened Def Con from 3.97225e-05 to 3.97225e-05
Heightened Def Con from 3.97243e-05 to 3.97254e-05
Heightened Def Con from 3.97266e-05 to 3.97277e-05
Heightened Def Con from 3.97279e-05 to 3.97279e-05
Heightened Def Con from 3.97333e-05 to 3.97354e-05
Heightened Def Con from 3.97402e-05 to 3.97432e-05
Heightened Def Con from 3.98236e-05 to 3.98239e-05
Heightened Def Con from 3.98995e-05 to 3.98997e-05
Heightened Def Con from 3.99165e-05 to 3.99168e-05
Heightened Def Con from 3.99169e-05 to 3.9922e-05
Heightened Def Con from 3.99222e-05 to 3.99233e-05
Heightened Def Con from 3.9927e-05 to 3.99273e-05
Heightened Def Con from 3.9929e-05 to 3.9932e-05
Heightened Def Con from 3.99484e-05 to 3.99486e-05
Heightened Def Con from 3.9982e-05 to 3.99822e-05
Heightened Def Con from 3.99824e-05 to 3.99847e-05
Heightened Def Con from 4.001e-05 to 4.00112e-05
Heightened Def Con from 4.00213e-05 to 4.00243e-05
Heightened Def Con from 4.00695e-05 to 4.00698e-05
Heightened Def Con from 4.00717e-05 to 4.00747e-05
Heightened Def Con from 4.00857e-05 to 4.00858e-05
Heightened Def Con from 4.00867e-05 to 4.00867e-05
Heightened Def Con from 4.00867e-05 to 4.00868e-05
Heightened Def Con from 4.00869e-05 to 4.0087e-05
Heightened Def Con from 4.00871e-05 to 4.00872e-05
Heightened Def Con from 4.00873e-05 to 4.00874e-05
Heightened Def Con from 4.00875e-05 to 4.00876e-05
Heightened Def Con from 4.00876e-05 to 4.00877e-05
Heightened Def Con from 4.00877e-05 to 4.00878e-05
Heightened Def Con from 4.00879e-05 to 4.009e-05
Heightened Def Con from 4.01042e-05 to 4.01044e-05
Heightened Def Con from 4.01206e-05 to 4.01227e-05
Heightened Def Con from 4.01248e-05 to 4.01249e-05
Heightened Def Con from 4.01269e-05 to 4.0128e-05
Heightened Def Con from 4.0128e-05 to 4.01281e-05
Heightened Def Con from 4.01286e-05 to 4.01297e-05
Heightened Def Con from 4.04044e-05 to 4.04104e-05
Heightened Def Con from 4.04824e-05 to 4.04825e-05
Heightened Def Con from 4.0483e-05 to 4.04851e-05
Heightened Def Con from 4.04855e-05 to 4.04876e-05
Heightened Def Con from 4.04903e-05 to 4.04905e-05
Heightened Def Con from 4.05853e-05 to 4.05883e-05
Heightened Def Con from 4.06864e-05 to 4.06875e-05
Heightened Def Con from 4.06878e-05 to 4.06882e-05
Heightened Def Con from 4.06889e-05 to 4.06892e-05
Heightened Def Con from 4.07213e-05 to 4.07214e-05
Heightened Def Con from 4.07215e-05 to 4.07245e-05
Heightened Def Con from 4.07253e-05 to 4.07264e-05
Heightened Def Con from 4.07313e-05 to 4.07314e-05
Heightened Def Con from 4.07314e-05 to 4.07334e-05
Heightened Def Con from 4.07334e-05 to 4.07345e-05
Heightened Def Con from 4.07427e-05 to 4.07438e-05
Heightened Def Con from 4.07518e-05 to 4.07539e-05
Heightened Def Con from 4.07552e-05 to 4.07563e-05
Heightened Def Con from 4.07566e-05 to 4.07596e-05
Heightened Def Con from 4.09154e-05 to 4.09174e-05
Heightened Def Con from 4.09175e-05 to 4.09226e-05
Heightened Def Con from 4.0943e-05 to 4.0946e-05
Heightened Def Con from 4.09759e-05 to 4.09789e-05
Heightened Def Con from 4.09822e-05 to 4.09823e-05
Heightened Def Con from 4.09824e-05 to 4.09895e-05
Heightened Def Con from 4.10037e-05 to 4.10087e-05
Heightened Def Con from 4.10101e-05 to 4.10101e-05
Heightened Def Con from 4.10101e-05 to 4.10112e-05
Heightened Def Con from 4.10208e-05 to 4.10229e-05
Heightened Def Con from 4.10255e-05 to 4.10266e-05
Heightened Def Con from 4.10266e-05 to 4.10296e-05
Heightened Def Con from 4.10386e-05 to 4.10416e-05
Heightened Def Con from 4.10485e-05 to 4.10515e-05
Heightened Def Con from 4.10885e-05 to 4.10885e-05
Heightened Def Con from 4.10887e-05 to 4.10887e-05
Heightened Def Con from 4.10891e-05 to 4.10892e-05
Heightened Def Con from 4.10894e-05 to 4.10894e-05
Heightened Def Con from 4.10895e-05 to 4.10897e-05
Heightened Def Con from 4.10897e-05 to 4.10904e-05
Heightened Def Con from 4.14168e-05 to 4.14178e-05
Heightened Def Con from 4.14179e-05 to 4.14249e-05
Heightened Def Con from 4.14356e-05 to 4.14386e-05
Heightened Def Con from 4.14849e-05 to 4.14849e-05
Heightened Def Con from 4.14849e-05 to 4.14849e-05
Heightened Def Con from 4.14849e-05 to 4.1485e-05
Heightened Def Con from 4.14855e-05 to 4.14858e-05
Heightened Def Con from 4.16688e-05 to 4.16699e-05
Heightened Def Con from 4.16728e-05 to 4.16758e-05
Heightened Def Con from 4.1676e-05 to 4.1679e-05
Heightened Def Con from 4.16898e-05 to 4.16919e-05
Heightened Def Con from 4.16923e-05 to 4.16935e-05
Heightened Def Con from 4.17121e-05 to 4.17131e-05
Heightened Def Con from 4.17287e-05 to 4.1729e-05
Heightened Def Con from 4.1729e-05 to 4.1731e-05
Heightened Def Con from 4.17311e-05 to 4.17314e-05
Heightened Def Con from 4.17348e-05 to 4.17351e-05
Heightened Def Con from 4.17622e-05 to 4.17642e-05
Heightened Def Con from 4.17643e-05 to 4.17664e-05
Heightened Def Con from 4.17667e-05 to 4.17678e-05
Heightened Def Con from 4.17695e-05 to 4.17706e-05
Heightened Def Con from 4.17709e-05 to 4.17739e-05
Heightened Def Con from 4.17819e-05 to 4.17831e-05
Heightened Def Con from 4.17945e-05 to 4.17955e-05
Heightened Def Con from 4.17955e-05 to 4.17966e-05
Heightened Def Con from 4.18094e-05 to 4.18114e-05
Heightened Def Con from 4.18433e-05 to 4.18444e-05
Heightened Def Con from 4.19018e-05 to 4.19018e-05
Heightened Def Con from 4.1902e-05 to 4.19031e-05
Heightened Def Con from 4.19177e-05 to 4.1919e-05
Heightened Def Con from 4.1919e-05 to 4.1924e-05
Heightened Def Con from 4.19415e-05 to 4.19426e-05
Heightened Def Con from 4.19462e-05 to 4.19492e-05
Heightened Def Con from 4.1956e-05 to 4.19581e-05
Heightened Def Con from 4.19822e-05 to 4.19835e-05
Heightened Def Con from 4.19835e-05 to 4.19846e-05
Heightened Def Con from 4.19931e-05 to 4.19961e-05
Heightened Def Con from 4.20209e-05 to 4.20239e-05
Heightened Def Con from 4.20378e-05 to 4.20408e-05
Heightened Def Con from 4.20544e-05 to 4.20554e-05
Heightened Def Con from 4.20877e-05 to 4.20877e-05
Heightened Def Con from 4.20877e-05 to 4.20877e-05
Heightened Def Con from 4.20879e-05 to 4.20879e-05
Heightened Def Con from 4.2088e-05 to 4.2088e-05
Heightened Def Con from 4.2088e-05 to 4.2088e-05
Heightened Def Con from 4.2088e-05 to 4.20881e-05
Heightened Def Con from 4.20881e-05 to 4.20881e-05
Heightened Def Con from 4.20881e-05 to 4.20881e-05
Heightened Def Con from 4.20883e-05 to 4.20883e-05
Heightened Def Con from 4.20883e-05 to 4.20884e-05
Heightened Def Con from 4.20885e-05 to 4.20885e-05
Heightened Def Con from 4.20887e-05 to 4.20887e-05
Heightened Def Con from 4.20887e-05 to 4.20887e-05
Heightened Def Con from 4.20887e-05 to 4.20898e-05
Heightened Def Con from 4.20899e-05 to 4.20919e-05
Heightened Def Con from 4.2112e-05 to 4.21141e-05
Heightened Def Con from 4.21227e-05 to 4.21227e-05
Heightened Def Con from 4.21263e-05 to 4.21273e-05
Heightened Def Con from 4.21274e-05 to 4.21277e-05
Heightened Def Con from 4.21278e-05 to 4.21278e-05
Heightened Def Con from 4.21293e-05 to 4.21323e-05
Heightened Def Con from 4.24044e-05 to 4.24055e-05
Heightened Def Con from 4.24182e-05 to 4.24213e-05
Heightened Def Con from 4.24221e-05 to 4.24251e-05
Heightened Def Con from 4.24839e-05 to 4.24841e-05
Heightened Def Con from 4.24885e-05 to 4.24889e-05
Heightened Def Con from 4.24893e-05 to 4.24903e-05
Heightened Def Con from 4.24908e-05 to 4.24909e-05
Heightened Def Con from 4.25409e-05 to 4.25409e-05
Heightened Def Con from 4.25489e-05 to 4.25519e-05
Heightened Def Con from 4.26241e-05 to 4.26271e-05
Heightened Def Con from 4.26471e-05 to 4.26473e-05
Heightened Def Con from 4.26591e-05 to 4.26621e-05
Heightened Def Con from 4.26647e-05 to 4.26649e-05
Heightened Def Con from 4.26658e-05 to 4.2666e-05
Heightened Def Con from 4.26662e-05 to 4.26703e-05
Heightened Def Con from 4.26905e-05 to 4.26925e-05
Heightened Def Con from 4.26949e-05 to 4.26961e-05
Heightened Def Con from 4.27073e-05 to 4.27075e-05
Heightened Def Con from 4.27076e-05 to 4.27088e-05
Heightened Def Con from 4.27223e-05 to 4.27225e-05
Heightened Def Con from 4.27249e-05 to 4.27261e-05
Heightened Def Con from 4.27261e-05 to 4.27263e-05
Heightened Def Con from 4.27266e-05 to 4.27266e-05
Heightened Def Con from 4.27266e-05 to 4.27277e-05
Heightened Def Con from 4.27287e-05 to 4.27317e-05
Heightened Def Con from 4.27327e-05 to 4.27357e-05
Heightened Def Con from 4.27358e-05 to 4.27369e-05
Heightened Def Con from 4.27567e-05 to 4.2757e-05
Heightened Def Con from 4.27652e-05 to 4.27682e-05
Heightened Def Con from 4.27754e-05 to 4.27766e-05
Heightened Def Con from 4.28155e-05 to 4.28158e-05
Heightened Def Con from 4.28207e-05 to 4.28227e-05
Heightened Def Con from 4.28935e-05 to 4.28955e-05
Heightened Def Con from 4.2896e-05 to 4.28963e-05
Heightened Def Con from 4.28986e-05 to 4.29006e-05
Heightened Def Con from 4.29065e-05 to 4.29085e-05
Heightened Def Con from 4.29085e-05 to 4.29105e-05
Heightened Def Con from 4.29166e-05 to 4.29177e-05
Heightened Def Con from 4.29183e-05 to 4.29223e-05
Heightened Def Con from 4.29224e-05 to 4.29246e-05
Heightened Def Con from 4.29315e-05 to 4.29318e-05
Heightened Def Con from 4.29332e-05 to 4.29362e-05
Heightened Def Con from 4.29814e-05 to 4.29814e-05
Heightened Def Con from 4.29817e-05 to 4.2982e-05
Heightened Def Con from 4.29832e-05 to 4.29862e-05
Heightened Def Con from 4.29996e-05 to 4.30026e-05
Heightened Def Con from 4.30217e-05 to 4.30238e-05
Heightened Def Con from 4.30381e-05 to 4.30382e-05
Heightened Def Con from 4.30519e-05 to 4.30569e-05
Heightened Def Con from 4.30686e-05 to 4.30698e-05
Heightened Def Con from 4.30867e-05 to 4.30867e-05
Heightened Def Con from 4.30871e-05 to 4.30871e-05
Heightened Def Con from 4.30871e-05 to 4.30872e-05
Heightened Def Con from 4.30872e-05 to 4.30872e-05
Heightened Def Con from 4.30874e-05 to 4.30874e-05
Heightened Def Con from 4.30876e-05 to 4.30876e-05
Heightened Def Con from 4.30876e-05 to 4.30876e-05
Heightened Def Con from 4.30878e-05 to 4.30878e-05
Heightened Def Con from 4.3088e-05 to 4.3088e-05
Heightened Def Con from 4.3088e-05 to 4.30881e-05
Heightened Def Con from 4.30882e-05 to 4.30884e-05
Heightened Def Con from 4.30884e-05 to 4.30886e-05
Heightened Def Con from 4.31036e-05 to 4.3104e-05
Heightened Def Con from 4.31098e-05 to 4.31102e-05
Heightened Def Con from 4.3111e-05 to 4.31121e-05
Heightened Def Con from 4.31142e-05 to 4.31153e-05
Heightened Def Con from 4.31185e-05 to 4.31206e-05
Heightened Def Con from 4.31406e-05 to 4.31436e-05
Heightened Def Con from 4.31483e-05 to 4.31513e-05
Heightened Def Con from 4.3403e-05 to 4.3408e-05
Heightened Def Con from 4.34181e-05 to 4.34211e-05
Heightened Def Con from 4.34549e-05 to 4.34579e-05
Heightened Def Con from 4.34716e-05 to 4.34719e-05
Heightened Def Con from 4.34799e-05 to 4.34799e-05
Heightened Def Con from 4.34814e-05 to 4.34814e-05
Heightened Def Con from 4.34814e-05 to 4.34816e-05
Heightened Def Con from 4.34882e-05 to 4.34882e-05
Heightened Def Con from 4.34883e-05 to 4.34884e-05
Heightened Def Con from 4.34898e-05 to 4.34899e-05
Heightened Def Con from 4.34899e-05 to 4.34929e-05
Heightened Def Con from 4.35406e-05 to 4.35427e-05
Heightened Def Con from 4.35454e-05 to 4.35465e-05
Heightened Def Con from 4.35466e-05 to 4.35469e-05
Heightened Def Con from 4.35471e-05 to 4.35474e-05
Heightened Def Con from 4.36519e-05 to 4.36529e-05
Heightened Def Con from 4.36623e-05 to 4.36624e-05
Heightened Def Con from 4.36624e-05 to 4.36625e-05
Heightened Def Con from 4.36628e-05 to 4.36628e-05
Heightened Def Con from 4.36629e-05 to 4.36629e-05
Heightened Def Con from 4.36656e-05 to 4.36726e-05
Heightened Def Con from 4.36777e-05 to 4.36807e-05
Heightened Def Con from 4.36888e-05 to 4.36898e-05
Heightened Def Con from 4.36898e-05 to 4.36908e-05
Heightened Def Con from 4.36909e-05 to 4.3693e-05
Heightened Def Con from 4.36967e-05 to 4.36967e-05
Heightened Def Con from 4.37118e-05 to 4.37139e-05
Heightened Def Con from 4.37161e-05 to 4.37191e-05
Heightened Def Con from 4.37196e-05 to 4.37198e-05
Heightened Def Con from 4.37206e-05 to 4.37227e-05
Heightened Def Con from 4.37227e-05 to 4.37229e-05
Heightened Def Con from 4.3723e-05 to 4.3725e-05
Heightened Def Con from 4.3725e-05 to 4.3725e-05
Heightened Def Con from 4.3725e-05 to 4.3725e-05
Heightened Def Con from 4.3725e-05 to 4.3725e-05
Heightened Def Con from 4.37251e-05 to 4.37251e-05
Heightened Def Con from 4.37251e-05 to 4.37254e-05
Heightened Def Con from 4.37254e-05 to 4.37255e-05
Heightened Def Con from 4.3727e-05 to 4.37272e-05
Heightened Def Con from 4.37327e-05 to 4.37337e-05
Heightened Def Con from 4.37337e-05 to 4.37358e-05
Heightened Def Con from 4.37362e-05 to 4.37383e-05
Heightened Def Con from 4.37384e-05 to 4.37394e-05
Heightened Def Con from 4.38212e-05 to 4.38223e-05
Heightened Def Con from 4.38377e-05 to 4.3838e-05
Heightened Def Con from 4.38601e-05 to 4.38604e-05
Heightened Def Con from 4.38932e-05 to 4.38952e-05
Heightened Def Con from 4.38979e-05 to 4.38989e-05
Heightened Def Con from 4.3899e-05 to 4.39001e-05
Heightened Def Con from 4.39074e-05 to 4.39085e-05
Heightened Def Con from 4.39116e-05 to 4.39116e-05
Heightened Def Con from 4.39117e-05 to 4.39119e-05
Heightened Def Con from 4.39178e-05 to 4.39184e-05
Heightened Def Con from 4.39185e-05 to 4.39187e-05
Heightened Def Con from 4.39336e-05 to 4.39338e-05
Heightened Def Con from 4.3951e-05 to 4.3954e-05
Heightened Def Con from 4.39702e-05 to 4.39714e-05
Heightened Def Con from 4.39803e-05 to 4.39804e-05
Heightened Def Con from 4.39804e-05 to 4.39804e-05
Heightened Def Con from 4.39807e-05 to 4.39819e-05
Heightened Def Con from 4.3982e-05 to 4.3986e-05
Heightened Def Con from 4.40005e-05 to 4.40015e-05
Heightened Def Con from 4.40039e-05 to 4.4005e-05
Heightened Def Con from 4.401e-05 to 4.40121e-05
Heightened Def Con from 4.40183e-05 to 4.40183e-05
Heightened Def Con from 4.40371e-05 to 4.40401e-05
Heightened Def Con from 4.40704e-05 to 4.40734e-05
Heightened Def Con from 4.40871e-05 to 4.40872e-05
Heightened Def Con from 4.40873e-05 to 4.40874e-05
Heightened Def Con from 4.40875e-05 to 4.40876e-05
Heightened Def Con from 4.40877e-05 to 4.40877e-05
Heightened Def Con from 4.40878e-05 to 4.40878e-05
Heightened Def Con from 4.40878e-05 to 4.40879e-05
Heightened Def Con from 4.4088e-05 to 4.4088e-05
Heightened Def Con from 4.40881e-05 to 4.40881e-05
Heightened Def Con from 4.40882e-05 to 4.40883e-05
Heightened Def Con from 4.40884e-05 to 4.40924e-05
Heightened Def Con from 4.41085e-05 to 4.41085e-05
Heightened Def Con from 4.41085e-05 to 4.41135e-05
Heightened Def Con from 4.41194e-05 to 4.41194e-05
Heightened Def Con from 4.41255e-05 to 4.41285e-05
Heightened Def Con from 4.41285e-05 to 4.41287e-05
Heightened Def Con from 4.41292e-05 to 4.41292e-05
Heightened Def Con from 4.41292e-05 to 4.41295e-05
Heightened Def Con from 4.4417e-05 to 4.44231e-05
Heightened Def Con from 4.44834e-05 to 4.44834e-05
Heightened Def Con from 4.44841e-05 to 4.44845e-05
Heightened Def Con from 4.44865e-05 to 4.44875e-05
Heightened Def Con from 4.44878e-05 to 4.4488e-05
Heightened Def Con from 4.44885e-05 to 4.44915e-05
Heightened Def Con from 4.46335e-05 to 4.46365e-05
Heightened Def Con from 4.46637e-05 to 4.46647e-05
Heightened Def Con from 4.46648e-05 to 4.46649e-05
Heightened Def Con from 4.46654e-05 to 4.46655e-05
Heightened Def Con from 4.46656e-05 to 4.46659e-05
Heightened Def Con from 4.4666e-05 to 4.46691e-05
Heightened Def Con from 4.46699e-05 to 4.46699e-05
Heightened Def Con from 4.46699e-05 to 4.46729e-05
Heightened Def Con from 4.46904e-05 to 4.46907e-05
Heightened Def Con from 4.46907e-05 to 4.46937e-05
Heightened Def Con from 4.47103e-05 to 4.47106e-05
Heightened Def Con from 4.4711e-05 to 4.4714e-05
Heightened Def Con from 4.4724e-05 to 4.47242e-05
Heightened Def Con from 4.47253e-05 to 4.47253e-05
Heightened Def Con from 4.47256e-05 to 4.47286e-05
Heightened Def Con from 4.47288e-05 to 4.47299e-05
Heightened Def Con from 4.47332e-05 to 4.47334e-05
Heightened Def Con from 4.47336e-05 to 4.47347e-05
Heightened Def Con from 4.47433e-05 to 4.47434e-05
Heightened Def Con from 4.4916e-05 to 4.49169e-05
Heightened Def Con from 4.4917e-05 to 4.4922e-05
Heightened Def Con from 4.49277e-05 to 4.49298e-05
Heightened Def Con from 4.49566e-05 to 4.49576e-05
Heightened Def Con from 4.49576e-05 to 4.49606e-05
Heightened Def Con from 4.49642e-05 to 4.49645e-05
Heightened Def Con from 4.49756e-05 to 4.49758e-05
Heightened Def Con from 4.49828e-05 to 4.49829e-05
Heightened Def Con from 4.4983e-05 to 4.49891e-05
[...]
Heightened Def Con from 5.19691e-05 to 5.19702e-05
Heightened Def Con from 5.19805e-05 to 5.19805e-05
Heightened Def Con from 5.19806e-05 to 5.19808e-05
Heightened Def Con from 5.19809e-05 to 5.19832e-05
Heightened Def Con from 5.20042e-05 to 5.20102e-05
Heightened Def Con from 5.20229e-05 to 5.20259e-05
Heightened Def Con from 5.20393e-05 to 5.20394e-05
Heightened Def Con from 5.20396e-05 to 5.20426e-05
Heightened Def Con from 5.20562e-05 to 5.20592e-05
Heightened Def Con from 5.20729e-05 to 5.20759e-05
Heightened Def Con from 5.20896e-05 to 5.20896e-05
Heightened Def Con from 5.20896e-05 to 5.20896e-05
Heightened Def Con from 5.20897e-05 to 5.20897e-05
Heightened Def Con from 5.20898e-05 to 5.20898e-05
Heightened Def Con from 5.20898e-05 to 5.20898e-05
Heightened Def Con from 5.20899e-05 to 5.209e-05
Heightened Def Con from 5.209e-05 to 5.209e-05
Heightened Def Con from 5.20902e-05 to 5.20902e-05
Heightened Def Con from 5.20904e-05 to 5.20904e-05
Heightened Def Con from 5.20904e-05 to 5.20905e-05
Heightened Def Con from 5.20906e-05 to 5.20915e-05
Heightened Def Con from 5.2097e-05 to 5.20981e-05
Heightened Def Con from 5.21058e-05 to 5.21058e-05
Heightened Def Con from 5.21194e-05 to 5.21194e-05
Heightened Def Con from 5.21309e-05 to 5.21339e-05
Heightened Def Con from 5.21478e-05 to 5.21508e-05
Heightened Def Con from 5.24197e-05 to 5.24227e-05
Heightened Def Con from 5.2453e-05 to 5.2456e-05
Heightened Def Con from 5.24809e-05 to 5.2481e-05
Heightened Def Con from 5.24811e-05 to 5.24861e-05
Heightened Def Con from 5.24865e-05 to 5.24865e-05
Heightened Def Con from 5.24866e-05 to 5.24869e-05
Heightened Def Con from 5.24886e-05 to 5.24916e-05
Heightened Def Con from 5.25929e-05 to 5.2593e-05
Heightened Def Con from 5.26143e-05 to 5.26164e-05
Heightened Def Con from 5.26606e-05 to 5.26616e-05
Heightened Def Con from 5.2663e-05 to 5.26633e-05
Heightened Def Con from 5.26633e-05 to 5.26714e-05
Heightened Def Con from 5.26746e-05 to 5.26746e-05
Heightened Def Con from 5.26853e-05 to 5.26883e-05
Heightened Def Con from 5.27111e-05 to 5.27121e-05
Heightened Def Con from 5.2713e-05 to 5.2714e-05
Heightened Def Con from 5.27145e-05 to 5.27175e-05
Heightened Def Con from 5.27231e-05 to 5.27231e-05
Heightened Def Con from 5.27231e-05 to 5.27231e-05
Heightened Def Con from 5.27231e-05 to 5.27241e-05
Heightened Def Con from 5.27241e-05 to 5.27241e-05
Heightened Def Con from 5.27241e-05 to 5.27252e-05
Heightened Def Con from 5.27258e-05 to 5.27268e-05
Heightened Def Con from 5.27291e-05 to 5.27291e-05
Heightened Def Con from 5.27292e-05 to 5.27322e-05
Heightened Def Con from 5.27564e-05 to 5.27585e-05
Heightened Def Con from 5.27585e-05 to 5.27587e-05
Heightened Def Con from 5.27587e-05 to 5.27598e-05
Heightened Def Con from 5.27654e-05 to 5.27665e-05
Heightened Def Con from 5.27678e-05 to 5.27708e-05
Heightened Def Con from 5.27725e-05 to 5.27726e-05
Heightened Def Con from 5.27726e-05 to 5.27746e-05
Heightened Def Con from 5.27746e-05 to 5.27757e-05
Heightened Def Con from 5.27759e-05 to 5.27789e-05
Heightened Def Con from 5.28141e-05 to 5.28152e-05
Heightened Def Con from 5.28984e-05 to 5.29004e-05
Heightened Def Con from 5.29164e-05 to 5.29244e-05
Heightened Def Con from 5.29612e-05 to 5.29622e-05
Heightened Def Con from 5.29822e-05 to 5.29822e-05
Heightened Def Con from 5.29828e-05 to 5.29828e-05
Heightened Def Con from 5.29828e-05 to 5.29828e-05
Heightened Def Con from 5.29831e-05 to 5.29834e-05
Heightened Def Con from 5.29835e-05 to 5.29855e-05
Heightened Def Con from 5.30031e-05 to 5.30071e-05
Heightened Def Con from 5.30196e-05 to 5.30226e-05
Heightened Def Con from 5.30529e-05 to 5.30559e-05
Heightened Def Con from 5.30696e-05 to 5.30726e-05
Heightened Def Con from 5.30862e-05 to 5.30863e-05
Heightened Def Con from 5.30865e-05 to 5.30865e-05
Heightened Def Con from 5.30867e-05 to 5.30868e-05
Heightened Def Con from 5.30869e-05 to 5.30869e-05
Heightened Def Con from 5.30871e-05 to 5.30872e-05
Heightened Def Con from 5.30873e-05 to 5.30873e-05
Heightened Def Con from 5.30873e-05 to 5.30874e-05
Heightened Def Con from 5.30874e-05 to 5.30904e-05
Heightened Def Con from 5.31075e-05 to 5.31077e-05
Heightened Def Con from 5.31086e-05 to 5.31097e-05
Heightened Def Con from 5.31106e-05 to 5.31158e-05
Heightened Def Con from 5.31467e-05 to 5.31497e-05
Heightened Def Con from 5.31546e-05 to 5.31576e-05
Heightened Def Con from 5.34083e-05 to 5.34104e-05
Heightened Def Con from 5.34185e-05 to 5.34245e-05
Heightened Def Con from 5.34846e-05 to 5.34846e-05
Heightened Def Con from 5.34853e-05 to 5.34854e-05
Heightened Def Con from 5.34854e-05 to 5.34875e-05
Heightened Def Con from 5.36254e-05 to 5.36264e-05
Heightened Def Con from 5.36272e-05 to 5.36293e-05
Heightened Def Con from 5.36454e-05 to 5.36484e-05
Heightened Def Con from 5.37123e-05 to 5.37153e-05
Heightened Def Con from 5.37257e-05 to 5.37268e-05
Heightened Def Con from 5.37271e-05 to 5.37282e-05
Heightened Def Con from 5.37366e-05 to 5.37368e-05
Heightened Def Con from 5.37373e-05 to 5.37403e-05
Heightened Def Con from 5.37517e-05 to 5.3752e-05
Heightened Def Con from 5.37555e-05 to 5.37556e-05
Heightened Def Con from 5.37556e-05 to 5.37556e-05
Heightened Def Con from 5.37556e-05 to 5.37559e-05
Heightened Def Con from 5.37597e-05 to 5.37608e-05
Heightened Def Con from 5.39068e-05 to 5.39088e-05
Heightened Def Con from 5.39188e-05 to 5.392e-05
Heightened Def Con from 5.39546e-05 to 5.39576e-05
Heightened Def Con from 5.3969e-05 to 5.39711e-05
Heightened Def Con from 5.39776e-05 to 5.39797e-05
Heightened Def Con from 5.39821e-05 to 5.39821e-05
Heightened Def Con from 5.39821e-05 to 5.39834e-05
Heightened Def Con from 5.39835e-05 to 5.39895e-05
Heightened Def Con from 5.40035e-05 to 5.40085e-05
Heightened Def Con from 5.40085e-05 to 5.40095e-05
Heightened Def Con from 5.40097e-05 to 5.40109e-05
Heightened Def Con from 5.40453e-05 to 5.40483e-05
Heightened Def Con from 5.40555e-05 to 5.40559e-05
Heightened Def Con from 5.40721e-05 to 5.40751e-05
Heightened Def Con from 5.4083e-05 to 5.40832e-05
Heightened Def Con from 5.40889e-05 to 5.40889e-05
Heightened Def Con from 5.40889e-05 to 5.40889e-05
Heightened Def Con from 5.4089e-05 to 5.40891e-05
Heightened Def Con from 5.40891e-05 to 5.40891e-05
Heightened Def Con from 5.40891e-05 to 5.40892e-05
Heightened Def Con from 5.40892e-05 to 5.40892e-05
Heightened Def Con from 5.40893e-05 to 5.40893e-05
Heightened Def Con from 5.40893e-05 to 5.40893e-05
Heightened Def Con from 5.40895e-05 to 5.40895e-05
Heightened Def Con from 5.40896e-05 to 5.40897e-05
Heightened Def Con from 5.40898e-05 to 5.409e-05
Heightened Def Con from 5.409e-05 to 5.40905e-05
Heightened Def Con from 5.4115e-05 to 5.41161e-05
Heightened Def Con from 5.41196e-05 to 5.41196e-05
Heightened Def Con from 5.41202e-05 to 5.41232e-05
Heightened Def Con from 5.41249e-05 to 5.41251e-05
Heightened Def Con from 5.44062e-05 to 5.44102e-05
Heightened Def Con from 5.44196e-05 to 5.44226e-05
Heightened Def Con from 5.44697e-05 to 5.44727e-05
Heightened Def Con from 5.44808e-05 to 5.4481e-05
Heightened Def Con from 5.44865e-05 to 5.44865e-05
Heightened Def Con from 5.44868e-05 to 5.4487e-05
Heightened Def Con from 5.46304e-05 to 5.46334e-05
Heightened Def Con from 5.46615e-05 to 5.46617e-05
Heightened Def Con from 5.46617e-05 to 5.46621e-05
Heightened Def Con from 5.46626e-05 to 5.46626e-05
Heightened Def Con from 5.46626e-05 to 5.4663e-05
Heightened Def Con from 5.4663e-05 to 5.4663e-05
Heightened Def Con from 5.46699e-05 to 5.46729e-05
Heightened Def Con from 5.47115e-05 to 5.47116e-05
Heightened Def Con from 5.47121e-05 to 5.47131e-05
Heightened Def Con from 5.47131e-05 to 5.47132e-05
Heightened Def Con from 5.47138e-05 to 5.47149e-05
Heightened Def Con from 5.47182e-05 to 5.47183e-05
Heightened Def Con from 5.47331e-05 to 5.47352e-05
Heightened Def Con from 5.4754e-05 to 5.4757e-05
Heightened Def Con from 5.48158e-05 to 5.48161e-05
Heightened Def Con from 5.48162e-05 to 5.48173e-05
Heightened Def Con from 5.49103e-05 to 5.49133e-05
Heightened Def Con from 5.49161e-05 to 5.49161e-05
Heightened Def Con from 5.49161e-05 to 5.49173e-05
Heightened Def Con from 5.49175e-05 to 5.49175e-05
Heightened Def Con from 5.49175e-05 to 5.49186e-05
Heightened Def Con from 5.49186e-05 to 5.49216e-05
Heightened Def Con from 5.49635e-05 to 5.49665e-05
Heightened Def Con from 5.4978e-05 to 5.4978e-05
Heightened Def Con from 5.49781e-05 to 5.49782e-05
Heightened Def Con from 5.49782e-05 to 5.49805e-05
Heightened Def Con from 5.50038e-05 to 5.50043e-05
Heightened Def Con from 5.50045e-05 to 5.50056e-05
Heightened Def Con from 5.50211e-05 to 5.50241e-05
Heightened Def Con from 5.5071e-05 to 5.5074e-05
Heightened Def Con from 5.50876e-05 to 5.50877e-05
Heightened Def Con from 5.50877e-05 to 5.50877e-05
Heightened Def Con from 5.50879e-05 to 5.50879e-05
Heightened Def Con from 5.50885e-05 to 5.50885e-05
Heightened Def Con from 5.50887e-05 to 5.50887e-05
Heightened Def Con from 5.50887e-05 to 5.50909e-05
Heightened Def Con from 5.50919e-05 to 5.5093e-05
Heightened Def Con from 5.51149e-05 to 5.51209e-05
Heightened Def Con from 5.51271e-05 to 5.51291e-05
Heightened Def Con from 5.51291e-05 to 5.51322e-05
Heightened Def Con from 5.54049e-05 to 5.54079e-05
Heightened Def Con from 5.54716e-05 to 5.54746e-05
Heightened Def Con from 5.54836e-05 to 5.54857e-05
Heightened Def Con from 5.54881e-05 to 5.54883e-05
Heightened Def Con from 5.56637e-05 to 5.56647e-05
Heightened Def Con from 5.56649e-05 to 5.56649e-05
Heightened Def Con from 5.56872e-05 to 5.56883e-05
Heightened Def Con from 5.56913e-05 to 5.56935e-05
Heightened Def Con from 5.571e-05 to 5.57111e-05
Heightened Def Con from 5.57132e-05 to 5.57133e-05
Heightened Def Con from 5.57154e-05 to 5.57165e-05
Heightened Def Con from 5.57165e-05 to 5.57165e-05
Heightened Def Con from 5.57165e-05 to 5.57195e-05
Heightened Def Con from 5.57213e-05 to 5.57225e-05
Heightened Def Con from 5.57326e-05 to 5.57329e-05
Heightened Def Con from 5.57335e-05 to 5.57365e-05
Heightened Def Con from 5.57368e-05 to 5.57371e-05
Heightened Def Con from 5.57371e-05 to 5.57374e-05
Heightened Def Con from 5.57384e-05 to 5.57384e-05
Heightened Def Con from 5.57412e-05 to 5.57442e-05
Heightened Def Con from 5.57753e-05 to 5.57756e-05
Heightened Def Con from 5.57787e-05 to 5.5779e-05
Heightened Def Con from 5.57794e-05 to 5.57794e-05
Heightened Def Con from 5.57794e-05 to 5.57805e-05
Heightened Def Con from 5.57835e-05 to 5.57847e-05
Heightened Def Con from 5.58144e-05 to 5.58164e-05
Heightened Def Con from 5.58879e-05 to 5.58879e-05
Heightened Def Con from 5.58879e-05 to 5.58899e-05
Heightened Def Con from 5.59072e-05 to 5.59093e-05
Heightened Def Con from 5.59112e-05 to 5.59134e-05
Heightened Def Con from 5.59186e-05 to 5.59236e-05
Heightened Def Con from 5.59315e-05 to 5.59345e-05
Heightened Def Con from 5.59806e-05 to 5.59806e-05
Heightened Def Con from 5.59807e-05 to 5.59807e-05
Heightened Def Con from 5.59808e-05 to 5.59808e-05
Heightened Def Con from 5.59809e-05 to 5.5981e-05
Heightened Def Con from 5.5981e-05 to 5.5981e-05
Heightened Def Con from 5.59813e-05 to 5.59883e-05
Heightened Def Con from 5.60048e-05 to 5.60069e-05
Heightened Def Con from 5.601e-05 to 5.60121e-05
Heightened Def Con from 5.60214e-05 to 5.60218e-05
Heightened Def Con from 5.60305e-05 to 5.60326e-05
Heightened Def Con from 5.60712e-05 to 5.60716e-05
Heightened Def Con from 5.60753e-05 to 5.60783e-05
Heightened Def Con from 5.60878e-05 to 5.60878e-05
Heightened Def Con from 5.60878e-05 to 5.60878e-05
Heightened Def Con from 5.60881e-05 to 5.60881e-05
Heightened Def Con from 5.60881e-05 to 5.60881e-05
Heightened Def Con from 5.60881e-05 to 5.60881e-05
Heightened Def Con from 5.60882e-05 to 5.60883e-05
Heightened Def Con from 5.60883e-05 to 5.60883e-05
Heightened Def Con from 5.60885e-05 to 5.60885e-05
Heightened Def Con from 5.60885e-05 to 5.60885e-05
Heightened Def Con from 5.60888e-05 to 5.60888e-05
Heightened Def Con from 5.60888e-05 to 5.60888e-05
Heightened Def Con from 5.60888e-05 to 5.60888e-05
Heightened Def Con from 5.60889e-05 to 5.60889e-05
Heightened Def Con from 5.60889e-05 to 5.60899e-05
Heightened Def Con from 5.609e-05 to 5.6094e-05
Heightened Def Con from 5.61095e-05 to 5.61115e-05
Heightened Def Con from 5.61115e-05 to 5.61145e-05
Heightened Def Con from 5.61179e-05 to 5.61179e-05
Heightened Def Con from 5.61272e-05 to 5.61284e-05
Heightened Def Con from 5.61284e-05 to 5.61285e-05
Heightened Def Con from 5.61285e-05 to 5.61307e-05
Heightened Def Con from 5.61474e-05 to 5.61474e-05
Heightened Def Con from 5.61475e-05 to 5.61505e-05
Heightened Def Con from 5.64213e-05 to 5.64214e-05
Heightened Def Con from 5.64214e-05 to 5.64244e-05
Heightened Def Con from 5.64845e-05 to 5.64875e-05
Heightened Def Con from 5.64882e-05 to 5.64882e-05
Heightened Def Con from 5.64883e-05 to 5.64883e-05
Heightened Def Con from 5.64884e-05 to 5.64884e-05
Heightened Def Con from 5.66375e-05 to 5.66375e-05
Heightened Def Con from 5.66378e-05 to 5.66408e-05
Heightened Def Con from 5.66626e-05 to 5.66638e-05
Heightened Def Con from 5.66642e-05 to 5.66663e-05
Heightened Def Con from 5.66712e-05 to 5.66733e-05
Heightened Def Con from 5.66872e-05 to 5.66875e-05
Heightened Def Con from 5.66895e-05 to 5.66905e-05
Heightened Def Con from 5.66919e-05 to 5.66922e-05
Heightened Def Con from 5.67397e-05 to 5.67427e-05
Heightened Def Con from 5.67482e-05 to 5.67492e-05
Heightened Def Con from 5.67495e-05 to 5.67497e-05
Heightened Def Con from 5.67505e-05 to 5.67517e-05
Heightened Def Con from 5.67528e-05 to 5.67549e-05
Heightened Def Con from 5.67549e-05 to 5.67549e-05
Heightened Def Con from 5.67549e-05 to 5.6756e-05
Heightened Def Con from 5.67567e-05 to 5.67579e-05
Heightened Def Con from 5.67596e-05 to 5.67607e-05
Heightened Def Con from 5.67947e-05 to 5.67967e-05
Heightened Def Con from 5.69002e-05 to 5.69002e-05
Heightened Def Con from 5.69002e-05 to 5.69022e-05
Heightened Def Con from 5.69025e-05 to 5.69027e-05
Heightened Def Con from 5.69027e-05 to 5.69038e-05
Heightened Def Con from 5.69093e-05 to 5.69104e-05
Heightened Def Con from 5.69179e-05 to 5.69189e-05
Heightened Def Con from 5.69191e-05 to 5.69231e-05
Heightened Def Con from 5.69703e-05 to 5.69733e-05
Heightened Def Con from 5.69819e-05 to 5.69821e-05
Heightened Def Con from 5.69822e-05 to 5.69833e-05
Heightened Def Con from 5.69835e-05 to 5.69866e-05
Heightened Def Con from 5.70181e-05 to 5.70231e-05
Heightened Def Con from 5.70364e-05 to 5.70394e-05
Heightened Def Con from 5.70531e-05 to 5.70561e-05
Heightened Def Con from 5.70698e-05 to 5.70728e-05
Heightened Def Con from 5.70863e-05 to 5.70864e-05
Heightened Def Con from 5.70864e-05 to 5.70864e-05
Heightened Def Con from 5.70865e-05 to 5.70865e-05
Heightened Def Con from 5.70866e-05 to 5.70867e-05
Heightened Def Con from 5.70867e-05 to 5.70867e-05
Heightened Def Con from 5.70867e-05 to 5.70868e-05
Heightened Def Con from 5.70871e-05 to 5.70871e-05
Heightened Def Con from 5.70871e-05 to 5.70872e-05
Heightened Def Con from 5.70873e-05 to 5.70873e-05
Heightened Def Con from 5.70875e-05 to 5.70875e-05
Heightened Def Con from 5.70876e-05 to 5.70897e-05
Heightened Def Con from 5.71034e-05 to 5.71066e-05
Heightened Def Con from 5.71069e-05 to 5.71072e-05
Heightened Def Con from 5.7119e-05 to 5.7121e-05
Heightened Def Con from 5.71239e-05 to 5.71249e-05
Heightened Def Con from 5.71249e-05 to 5.71252e-05
Heightened Def Con from 5.71256e-05 to 5.7126e-05
Heightened Def Con from 5.74184e-05 to 5.74234e-05
Heightened Def Con from 5.74351e-05 to 5.74381e-05
Heightened Def Con from 5.74646e-05 to 5.74676e-05
Heightened Def Con from 5.74851e-05 to 5.74851e-05
Heightened Def Con from 5.74852e-05 to 5.74853e-05
Heightened Def Con from 5.74879e-05 to 5.74909e-05
Heightened Def Con from 5.7523e-05 to 5.75251e-05
Heightened Def Con from 5.76383e-05 to 5.76413e-05
Heightened Def Con from 5.76633e-05 to 5.76663e-05
Heightened Def Con from 5.76727e-05 to 5.76767e-05
Heightened Def Con from 5.76828e-05 to 5.76828e-05
Heightened Def Con from 5.76828e-05 to 5.76828e-05
Heightened Def Con from 5.76828e-05 to 5.76858e-05
Heightened Def Con from 5.77188e-05 to 5.77199e-05
Heightened Def Con from 5.77263e-05 to 5.77285e-05
Heightened Def Con from 5.7736e-05 to 5.7738e-05
Heightened Def Con from 5.77383e-05 to 5.77394e-05
Heightened Def Con from 5.77395e-05 to 5.77398e-05
Heightened Def Con from 5.77415e-05 to 5.77426e-05
Heightened Def Con from 5.77544e-05 to 5.77556e-05
Heightened Def Con from 5.77559e-05 to 5.7756e-05
Heightened Def Con from 5.77561e-05 to 5.77581e-05
Heightened Def Con from 5.77581e-05 to 5.77603e-05
Heightened Def Con from 5.77606e-05 to 5.77609e-05
Heightened Def Con from 5.77617e-05 to 5.7762e-05
Heightened Def Con from 5.77621e-05 to 5.77643e-05
Heightened Def Con from 5.77643e-05 to 5.77654e-05
Heightened Def Con from 5.77701e-05 to 5.77731e-05
Heightened Def Con from 5.77752e-05 to 5.77782e-05
Heightened Def Con from 5.78819e-05 to 5.78821e-05
Heightened Def Con from 5.7899e-05 to 5.7899e-05
Heightened Def Con from 5.7899e-05 to 5.7901e-05
Heightened Def Con from 5.79012e-05 to 5.79023e-05
Heightened Def Con from 5.791e-05 to 5.79121e-05
Heightened Def Con from 5.79131e-05 to 5.79133e-05
Heightened Def Con from 5.7915e-05 to 5.7915e-05
Heightened Def Con from 5.79175e-05 to 5.79187e-05
Heightened Def Con from 5.79188e-05 to 5.79248e-05
Heightened Def Con from 5.79592e-05 to 5.79603e-05
Heightened Def Con from 5.79816e-05 to 5.79827e-05
Heightened Def Con from 5.79829e-05 to 5.7983e-05
Heightened Def Con from 5.80053e-05 to 5.80065e-05
Heightened Def Con from 5.80091e-05 to 5.80131e-05
Heightened Def Con from 5.8022e-05 to 5.8025e-05
Heightened Def Con from 5.80388e-05 to 5.80409e-05
Heightened Def Con from 5.80718e-05 to 5.80721e-05
Heightened Def Con from 5.80884e-05 to 5.80884e-05
Heightened Def Con from 5.80888e-05 to 5.80889e-05
Heightened Def Con from 5.8089e-05 to 5.80891e-05
Heightened Def Con from 5.80892e-05 to 5.80892e-05
Heightened Def Con from 5.80892e-05 to 5.80893e-05
Heightened Def Con from 5.80894e-05 to 5.80894e-05
Heightened Def Con from 5.80894e-05 to 5.80894e-05
Heightened Def Con from 5.80894e-05 to 5.80896e-05
Heightened Def Con from 5.80896e-05 to 5.80917e-05
Heightened Def Con from 5.81014e-05 to 5.81017e-05
Heightened Def Con from 5.81106e-05 to 5.8111e-05
Heightened Def Con from 5.81118e-05 to 5.81129e-05
Heightened Def Con from 5.81203e-05 to 5.81215e-05
Heightened Def Con from 5.81398e-05 to 5.81398e-05
Heightened Def Con from 5.81436e-05 to 5.81458e-05
Heightened Def Con from 5.84804e-05 to 5.84804e-05
Heightened Def Con from 5.84804e-05 to 5.84814e-05
Heightened Def Con from 5.8485e-05 to 5.84852e-05
Heightened Def Con from 5.8651e-05 to 5.86512e-05
Heightened Def Con from 5.86516e-05 to 5.86546e-05
Heightened Def Con from 5.86628e-05 to 5.86628e-05
Heightened Def Con from 5.86838e-05 to 5.86849e-05
Heightened Def Con from 5.86902e-05 to 5.86912e-05
Heightened Def Con from 5.87325e-05 to 5.87355e-05
Heightened Def Con from 5.87355e-05 to 5.87358e-05
Heightened Def Con from 5.87361e-05 to 5.87362e-05
Heightened Def Con from 5.87452e-05 to 5.87482e-05
Heightened Def Con from 5.87563e-05 to 5.87593e-05
Heightened Def Con from 5.88215e-05 to 5.88235e-05
Heightened Def Con from 5.89108e-05 to 5.89138e-05
Heightened Def Con from 5.89181e-05 to 5.89242e-05
Heightened Def Con from 5.8936e-05 to 5.89382e-05
Heightened Def Con from 5.89499e-05 to 5.89529e-05
Heightened Def Con from 5.89606e-05 to 5.89627e-05
Heightened Def Con from 5.89844e-05 to 5.89844e-05

Date: Thu Feb 22 14:25:02 2024
Total elapsed time: 268.561 seconds.

tnom = 27
temp = 27
method = modified trap
totiter = 5878761
traniter = 5878735
tranpoints = 943336
accept = 685890
rejected = 259773
matrix size = 199
fillins = 137
solver = Normal
Avg thread counts: 2.0/1.0/1.0/1.0
Matrix Compiler1: 13.22 KB object code size  6.1/3.9/[1.8]
Matrix Compiler2: 15.97 KB object code size  2.8/3.9/[1.9]

